
     RDKit          3D

  0  0  0  0  0  0  0  0  0  0999 V3000
M  V30 BEGIN CTAB
M  V30 COUNTS 108 107 0 0 0
M  V30 BEGIN ATOM
M  V30 1 N -14.5539 -0.6194 -0.2179 0
M  V30 2 C -15.3286 0.5522 0.1103 0
M  V30 3 C -16.7613 0.4471 -0.3086 0
M  V30 4 C -17.4991 -0.6900 0.3159 0
M  V30 5 N -18.8704 -0.6194 -0.2179 0
M  V30 6 H -15.3045 0.6538 1.2194 0
M  V30 7 H -14.9085 1.4649 -0.3715 0
M  V30 8 H -17.2680 1.3874 -0.0022 0
M  V30 9 H -16.8719 0.3723 -1.4037 0
M  V30 10 H -17.0844 -1.6811 0.0766 0
M  V30 11 H -17.5732 -0.6236 1.4160 0
M  V30 12 H -19.5504 -0.8535 0.5444 0
M  V30 13 H -19.1026 0.3857 -0.4800 0
M  V30 14 C -8.4098 -0.6194 -0.2179 0
M  V30 15 C -9.6050 0.2457 -0.1416 0
M  V30 16 C -10.8040 -0.6194 -0.2179 0
M  V30 17 H -7.7622 -0.7254 0.6269 0
M  V30 18 H -9.6161 1.0268 -0.9377 0
M  V30 19 H -9.6538 0.7639 0.8415 0
M  V30 20 H -11.7768 -0.1600 -0.1726 0
M  V30 21 N -0.3433 -0.6194 -0.2179 0
M  V30 22 C -1.1180 0.5522 0.1103 0
M  V30 23 C -2.5507 0.4471 -0.3086 0
M  V30 24 C -3.2885 -0.6900 0.3159 0
M  V30 25 N -4.6598 -0.6194 -0.2179 0
M  V30 26 H -1.0939 0.6538 1.2194 0
M  V30 27 H -0.6979 1.4649 -0.3715 0
M  V30 28 H -3.0574 1.3874 -0.0022 0
M  V30 29 H -2.6613 0.3723 -1.4037 0
M  V30 30 H -2.8738 -1.6811 0.0766 0
M  V30 31 H -3.3626 -0.6236 1.4160 0
M  V30 32 C 5.8008 -0.6194 -0.2179 0
M  V30 33 C 4.6056 0.2457 -0.1416 0
M  V30 34 C 3.4066 -0.6194 -0.2179 0
M  V30 35 H 6.4484 -0.7254 0.6269 0
M  V30 36 H 4.5945 1.0268 -0.9377 0
M  V30 37 H 4.5568 0.7639 0.8415 0
M  V30 38 H 2.4339 -0.1600 -0.1726 0
M  V30 39 N 13.8673 -0.6194 -0.2179 0
M  V30 40 C 13.0926 0.5522 0.1103 0
M  V30 41 C 11.6599 0.4471 -0.3086 0
M  V30 42 C 10.9221 -0.6900 0.3159 0
M  V30 43 N 9.5508 -0.6194 -0.2179 0
M  V30 44 H 13.1167 0.6538 1.2194 0
M  V30 45 H 13.5127 1.4649 -0.3715 0
M  V30 46 H 11.1532 1.3874 -0.0022 0
M  V30 47 H 11.5493 0.3723 -1.4037 0
M  V30 48 H 11.3368 -1.6811 0.0766 0
M  V30 49 H 10.8480 -0.6236 1.4160 0
M  V30 50 O 20.2354 -1.2008 -1.2563 0
M  V30 51 C 20.0114 -0.6194 -0.2179 0
M  V30 52 C 18.8162 0.2457 -0.1416 0
M  V30 53 C 17.6172 -0.6194 -0.2179 0
M  V30 54 H 20.6590 -0.7254 0.6269 0
M  V30 55 H 18.8051 1.0268 -0.9377 0
M  V30 56 H 18.7674 0.7639 0.8415 0
M  V30 57 H 16.6445 -0.1600 -0.1726 0
M  V30 58 C 0.0197 -1.2563 9.4889 0
M  V30 59 C -0.6042 0.0023 8.9568 0
M  V30 60 C 0.0197 1.2563 9.4889 0
M  V30 61 H -0.4208 -2.1484 8.9820 0
M  V30 62 H 1.1073 -1.2590 9.2109 0
M  V30 63 H -0.5695 -0.0649 7.8559 0
M  V30 64 H -1.6968 -0.0049 9.2432 0
M  V30 65 H -0.4225 2.1699 9.0330 0
M  V30 66 H 1.0965 1.2704 9.2177 0
M  V30 67 C 0.0197 7.6097 5.7975 0
M  V30 68 N 0.5252 7.7646 4.4799 0
M  V30 69 C 0.0197 8.8256 3.6915 0
M  V30 70 H -1.0646 7.3478 5.8351 0
M  V30 71 H 0.5231 6.7261 6.2830 0
M  V30 72 H 0.4351 6.8799 3.9447 0
M  V30 73 H -1.0460 8.6703 3.4202 0
M  V30 74 H 0.5709 8.7691 2.7043 0
M  V30 75 C 0.0197 8.8458 -3.6565 0
M  V30 76 C -0.6042 7.7556 -4.4804 0
M  V30 77 C 0.0197 7.5895 -5.8324 0
M  V30 78 H -0.4208 8.8528 -2.6304 0
M  V30 79 H 1.1073 8.6064 -3.5151 0
M  V30 80 H -0.5695 6.8359 -3.8718 0
M  V30 81 H -1.6968 8.0073 -4.6173 0
M  V30 82 H -0.4225 6.7378 -6.3957 0
M  V30 83 H 1.0965 7.3475 -5.7091 0
M  V30 84 C 0.0197 1.2159 -9.4889 0
M  V30 85 N 0.5252 -0.0026 -8.9643 0
M  V30 86 C 0.0197 -1.2159 -9.4889 0
M  V30 87 H -1.0646 1.3794 -9.2809 0
M  V30 88 H 0.5231 2.0782 -8.9664 0
M  V30 89 H 0.4351 -0.0238 -7.9305 0
M  V30 90 H -1.0460 -1.3732 -9.2188 0
M  V30 91 H 0.5709 -2.0425 -8.9464 0
M  V30 92 C 0.0197 -7.5895 -5.8324 0
M  V30 93 C -0.6042 -7.7580 -4.4764 0
M  V30 94 C 0.0197 -8.8458 -3.6565 0
M  V30 95 H -0.4208 -6.7044 -6.3516 0
M  V30 96 H 1.1073 -7.3473 -5.6958 0
M  V30 97 H -0.5695 -6.7710 -3.9842 0
M  V30 98 H -1.6968 -8.0024 -4.6258 0
M  V30 99 H -0.4225 -8.9077 -2.6373 0
M  V30 100 H 1.0965 -8.6179 -3.5086 0
M  V30 101 C 0.0197 -8.8256 3.6915 0
M  V30 102 N 0.5252 -7.7621 4.4844 0
M  V30 103 C 0.0197 -7.6097 5.7975 0
M  V30 104 H -1.0646 -8.7272 3.4458 0
M  V30 105 H 0.5231 -8.8042 2.6834 0
M  V30 106 H 0.4351 -6.8561 3.9859 0
M  V30 107 H -1.0460 -7.2971 5.7986 0
M  V30 108 H 0.5709 -6.7266 6.2421 0
M  V30 END ATOM
M  V30 BEGIN BOND
M  V30 1 1 1 2
M  V30 2 1 2 3
M  V30 3 1 3 4
M  V30 4 1 4 5
M  V30 5 1 2 6
M  V30 6 1 2 7
M  V30 7 1 3 8
M  V30 8 1 3 9
M  V30 9 1 4 10
M  V30 10 1 4 11
M  V30 11 1 5 12
M  V30 12 1 5 13
M  V30 13 1 14 15
M  V30 14 1 15 16
M  V30 15 1 14 17
M  V30 16 1 15 18
M  V30 17 1 15 19
M  V30 18 1 16 20
M  V30 19 1 21 22
M  V30 20 1 22 23
M  V30 21 1 23 24
M  V30 22 1 24 25
M  V30 23 1 22 26
M  V30 24 1 22 27
M  V30 25 1 23 28
M  V30 26 1 23 29
M  V30 27 1 24 30
M  V30 28 1 24 31
M  V30 29 1 32 33
M  V30 30 1 33 34
M  V30 31 1 32 35
M  V30 32 1 33 36
M  V30 33 1 33 37
M  V30 34 1 34 38
M  V30 35 1 39 40
M  V30 36 1 40 41
M  V30 37 1 41 42
M  V30 38 1 42 43
M  V30 39 1 40 44
M  V30 40 1 40 45
M  V30 41 1 41 46
M  V30 42 1 41 47
M  V30 43 1 42 48
M  V30 44 1 42 49
M  V30 45 2 50 51
M  V30 46 1 51 52
M  V30 47 1 52 53
M  V30 48 1 51 54
M  V30 49 1 52 55
M  V30 50 1 52 56
M  V30 51 1 53 57
M  V30 52 2 1 16
M  V30 53 2 14 25
M  V30 54 2 21 34
M  V30 55 2 32 43
M  V30 56 2 39 53
M  V30 57 1 58 59
M  V30 58 1 59 60
M  V30 59 1 58 61
M  V30 60 1 58 62
M  V30 61 1 59 63
M  V30 62 1 59 64
M  V30 63 1 60 65
M  V30 64 1 60 66
M  V30 65 1 67 68
M  V30 66 1 68 69
M  V30 67 1 67 70
M  V30 68 1 67 71
M  V30 69 1 68 72
M  V30 70 1 69 73
M  V30 71 1 69 74
M  V30 72 1 75 76
M  V30 73 1 76 77
M  V30 74 1 75 78
M  V30 75 1 75 79
M  V30 76 1 76 80
M  V30 77 1 76 81
M  V30 78 1 77 82
M  V30 79 1 77 83
M  V30 80 1 84 85
M  V30 81 1 85 86
M  V30 82 1 84 87
M  V30 83 1 84 88
M  V30 84 1 85 89
M  V30 85 1 86 90
M  V30 86 1 86 91
M  V30 87 1 92 93
M  V30 88 1 93 94
M  V30 89 1 92 95
M  V30 90 1 92 96
M  V30 91 1 93 97
M  V30 92 1 93 98
M  V30 93 1 94 99
M  V30 94 1 94 100
M  V30 95 1 101 102
M  V30 96 1 102 103
M  V30 97 1 101 104
M  V30 98 1 101 105
M  V30 99 1 102 106
M  V30 100 1 103 107
M  V30 101 1 103 108
M  V30 102 1 60 67
M  V30 103 1 69 75
M  V30 104 1 77 84
M  V30 105 1 86 92
M  V30 106 1 94 101
M  V30 107 1 58 103
M  V30 END BOND
M  V30 END CTAB
M  END

$$$$
