
     RDKit          3D

  0  0  0  0  0  0  0  0  0  0999 V3000
M  V30 BEGIN CTAB
M  V30 COUNTS 98 100 0 0 0
M  V30 BEGIN ATOM
M  V30 1 C -1.2177 -0.7031 8.8724 0
M  V30 2 C 0.0086 -0.0004 9.3382 0
M  V30 3 C 1.2247 -0.7108 8.8724 0
M  V30 4 C -0.0069 1.4139 8.8724 0
M  V30 5 H -1.4078 -0.8404 7.8236 0
M  V30 6 H 0.0251 0.0401 10.4500 0
M  V30 7 H 1.3413 -0.8102 7.7840 0
M  V30 8 H 0.7762 2.1298 9.0835 0
M  V30 9 C -7.6502 -4.4169 -1.6318 0
M  V30 10 C -7.6249 -4.3968 -3.1196 0
M  V30 11 C -7.6547 -3.0016 -3.6223 0
M  V30 12 C -6.4280 -5.1291 -3.6183 0
M  V30 13 H -6.8732 -3.9406 -1.0622 0
M  V30 14 H -8.5092 -4.9385 -3.5227 0
M  V30 15 H -6.8234 -2.3549 -3.3079 0
M  V30 16 H -6.1870 -5.2537 -4.6656 0
M  V30 17 C 7.6502 -4.4169 -1.6318 0
M  V30 18 C 7.6202 -4.4049 -3.1196 0
M  V30 19 C 6.4268 -5.1284 -3.6223 0
M  V30 20 C 7.6559 -3.0023 -3.6183 0
M  V30 21 H 6.8493 -3.9821 -1.0622 0
M  V30 22 H 8.5314 -4.9000 -3.5227 0
M  V30 23 H 5.4511 -4.7318 -3.3079 0
M  V30 24 H 7.6434 -2.7312 -4.6656 0
M  V30 25 C 0.0000 9.0656 -0.9758 0
M  V30 26 C -0.8383 8.3722 -1.9782 0
M  V30 27 Cl -2.4675 9.1320 -1.8509 0
M  V30 28 C -0.2823 8.6334 -3.3514 0
M  V30 29 C 1.1117 8.1579 -3.5434 0
M  V30 30 C -1.1117 7.8715 -4.3533 0
M  V30 31 H -0.2355 8.9852 0.0924 0
M  V30 32 H -0.9325 7.2828 -1.7568 0
M  V30 33 H -0.3420 9.7084 -3.6201 0
M  V30 34 H 1.4031 7.1212 -3.4064 0
M  V30 35 H -1.1429 6.7930 -4.2318 0
M  V30 36 N -3.3549 -1.9369 5.3825 0
M  V30 37 C -4.6433 -2.5817 5.4508 0
M  V30 38 C -5.3693 -2.5864 4.1423 0
M  V30 39 C -4.6445 -3.2893 3.0433 0
M  V30 40 N -5.5131 -3.1830 1.8581 0
M  V30 41 H -4.4582 -3.6411 5.7414 0
M  V30 42 H -5.3066 -2.0859 6.1962 0
M  V30 43 H -6.3359 -3.1118 4.2993 0
M  V30 44 H -5.6168 -1.5679 3.7983 0
M  V30 45 H -3.6659 -2.8498 2.7966 0
M  V30 46 H -4.4811 -4.3651 3.2329 0
M  V30 47 N 3.3583 -1.9408 5.3825 0
M  V30 48 C 4.5608 -2.7345 5.4507 0
M  V30 49 C 4.9278 -3.3608 4.1423 0
M  V30 50 C 5.1744 -2.3815 3.0434 0
M  V30 51 N 5.5166 -3.1869 1.8581 0
M  V30 52 H 5.3858 -2.0447 5.7415 0
M  V30 53 H 4.4628 -3.5570 6.1961 0
M  V30 54 H 5.8659 -3.9354 4.2992 0
M  V30 55 H 4.1693 -4.0842 3.7981 0
M  V30 56 H 4.3046 -1.7536 2.7967 0
M  V30 57 H 6.0245 -1.7024 3.2331 0
M  V30 58 N -0.0035 3.9937 5.7105 0
M  V30 59 C 0.0817 5.4319 5.7788 0
M  V30 60 C 0.4408 6.0632 4.4705 0
M  V30 61 C -0.5299 5.7865 3.3711 0
M  V30 62 N -0.0035 6.4858 2.1861 0
M  V30 63 H -0.9285 5.8009 6.0691 0
M  V30 64 H 0.8425 5.7588 6.5244 0
M  V30 65 H 0.4686 7.1629 4.6274 0
M  V30 66 H 1.4468 5.7687 4.1268 0
M  V30 67 H -0.6380 4.7192 3.1244 0
M  V30 68 H -1.5435 6.1825 3.5604 0
M  V30 69 N -2.1589 -5.1287 -3.6203 0
M  V30 70 C -1.3842 -6.0708 -4.3903 0
M  V30 71 C 0.0485 -5.6676 -4.5451 0
M  V30 72 C 0.7863 -5.5249 -3.2557 0
M  V30 73 N 2.1576 -5.1287 -3.6203 0
M  V30 74 H -1.4083 -7.0367 -3.8359 0
M  V30 75 H -1.8043 -6.2013 -5.4141 0
M  V30 76 H 0.5552 -6.4589 -5.1384 0
M  V30 77 H 0.1591 -4.7286 -5.1134 0
M  V30 78 H 0.3716 -4.7593 -2.5823 0
M  V30 79 H 0.8604 -6.4632 -2.6776 0
M  V30 80 N -5.4623 0.5659 -3.9878 0
M  V30 81 C -5.9438 1.7384 -4.6762 0
M  V30 82 C -5.2583 2.9969 -4.2457 0
M  V30 83 C -3.7828 2.9970 -4.4703 0
M  V30 84 N -3.3041 4.3041 -3.9878 0
M  V30 85 H -5.7295 1.5869 -5.7588 0
M  V30 86 H -7.0366 1.8842 -4.5144 0
M  V30 87 H -5.6901 3.8314 -4.8390 0
M  V30 88 H -5.4474 3.2338 -3.1850 0
M  V30 89 H -3.2445 2.2073 -3.9243 0
M  V30 90 H -3.4930 2.9153 -5.5331 0
M  V30 91 N 3.6589 3.8334 -3.5809 0
M  V30 92 C 4.5627 3.4727 -4.6219 0
M  V30 93 Cl 3.6813 2.7397 -5.9636 0
M  V30 94 C 5.6578 2.5384 -4.1122 0
M  V30 95 N 5.1087 1.3221 -3.5809 0
M  V30 96 H 5.1100 4.3898 -4.9851 0
M  V30 97 H 6.1829 3.0842 -3.2939 0
M  V30 98 H 6.4068 2.3636 -4.8976 0
M  V30 END ATOM
M  V30 BEGIN BOND
M  V30 1 1 1 2
M  V30 2 1 2 3
M  V30 3 1 2 4
M  V30 4 1 1 5
M  V30 5 1 2 6
M  V30 6 1 3 7
M  V30 7 1 4 8
M  V30 8 1 9 10
M  V30 9 1 10 11
M  V30 10 1 10 12
M  V30 11 1 9 13
M  V30 12 1 10 14
M  V30 13 1 11 15
M  V30 14 1 12 16
M  V30 15 1 17 18
M  V30 16 1 18 19
M  V30 17 1 18 20
M  V30 18 1 17 21
M  V30 19 1 18 22
M  V30 20 1 19 23
M  V30 21 1 20 24
M  V30 22 1 25 26
M  V30 23 1 26 27
M  V30 24 1 26 28
M  V30 25 1 28 29
M  V30 26 1 28 30
M  V30 27 1 25 31
M  V30 28 1 26 32
M  V30 29 1 28 33
M  V30 30 1 29 34
M  V30 31 1 30 35
M  V30 32 1 36 37
M  V30 33 1 37 38
M  V30 34 1 38 39
M  V30 35 1 39 40
M  V30 36 1 37 41
M  V30 37 1 37 42
M  V30 38 1 38 43
M  V30 39 1 38 44
M  V30 40 1 39 45
M  V30 41 1 39 46
M  V30 42 1 47 48
M  V30 43 1 48 49
M  V30 44 1 49 50
M  V30 45 1 50 51
M  V30 46 1 48 52
M  V30 47 1 48 53
M  V30 48 1 49 54
M  V30 49 1 49 55
M  V30 50 1 50 56
M  V30 51 1 50 57
M  V30 52 1 58 59
M  V30 53 1 59 60
M  V30 54 1 60 61
M  V30 55 1 61 62
M  V30 56 1 59 63
M  V30 57 1 59 64
M  V30 58 1 60 65
M  V30 59 1 60 66
M  V30 60 1 61 67
M  V30 61 1 61 68
M  V30 62 1 69 70
M  V30 63 1 70 71
M  V30 64 1 71 72
M  V30 65 1 72 73
M  V30 66 1 70 74
M  V30 67 1 70 75
M  V30 68 1 71 76
M  V30 69 1 71 77
M  V30 70 1 72 78
M  V30 71 1 72 79
M  V30 72 1 80 81
M  V30 73 1 81 82
M  V30 74 1 82 83
M  V30 75 1 83 84
M  V30 76 1 81 85
M  V30 77 1 81 86
M  V30 78 1 82 87
M  V30 79 1 82 88
M  V30 80 1 83 89
M  V30 81 1 83 90
M  V30 82 1 91 92
M  V30 83 1 92 93
M  V30 84 1 92 94
M  V30 85 1 94 95
M  V30 86 1 92 96
M  V30 87 1 94 97
M  V30 88 1 94 98
M  V30 89 2 1 36
M  V30 90 2 9 40
M  V30 91 2 3 47
M  V30 92 2 17 51
M  V30 93 2 4 58
M  V30 94 2 25 62
M  V30 95 2 12 69
M  V30 96 2 19 73
M  V30 97 2 11 80
M  V30 98 2 30 84
M  V30 99 2 20 95
M  V30 100 2 29 91
M  V30 END BOND
M  V30 END CTAB
M  END

$$$$
