
     RDKit          3D

  0  0  0  0  0  0  0  0  0  0999 V3000
M  V30 BEGIN CTAB
M  V30 COUNTS 155 160 0 0 0
M  V30 BEGIN ATOM
M  V30 1 C 0.8170 8.4591 0.4295 0
M  V30 2 C -0.0108 7.3160 -0.0195 0
M  V30 3 C -0.5539 6.6499 1.2224 0
M  V30 4 C 0.8692 6.3878 -0.7664 0
M  V30 5 C -1.1323 7.7542 -0.8855 0
M  V30 6 H 1.3374 9.1252 -0.2528 0
M  V30 7 H 0.0467 6.2271 1.9904 0
M  V30 8 H 0.5087 5.4564 -1.2096 0
M  V30 9 H -1.9014 8.4363 -0.5701 0
M  V30 10 C 7.7926 3.3910 0.4295 0
M  V30 11 C 6.9648 2.2397 0.0021 0
M  V30 12 C 6.1102 2.7140 -1.1493 0
M  V30 13 C 6.1180 1.8421 1.1505 0
M  V30 14 C 7.7984 1.0919 -0.4307 0
M  V30 15 H 8.5086 3.3428 1.2451 0
M  V30 16 H 5.4075 3.5089 -1.0899 0
M  V30 17 H 5.4081 1.0127 1.1048 0
M  V30 18 H 8.5016 1.1352 -1.2432 0
M  V30 19 C 5.6331 -6.3633 0.4295 0
M  V30 20 C 4.2823 -5.9318 0.0021 0
M  V30 21 C 4.4693 -4.9725 -1.1493 0
M  V30 22 C 3.6426 -5.2493 1.1505 0
M  V30 23 C 3.4483 -7.0793 -0.4307 0
M  V30 24 H 5.8085 -7.0592 1.2451 0
M  V30 25 H 5.0081 -4.0585 -1.0899 0
M  V30 26 H 2.6343 -4.8305 1.1048 0
M  V30 27 H 3.7067 -7.7347 -1.2432 0
M  V30 28 C -4.3112 -7.3237 0.4295 0
M  V30 29 C -4.3182 -5.9057 0.0021 0
M  V30 30 C -3.3481 -5.7872 -1.1493 0
M  V30 31 C -3.8668 -5.0864 1.1505 0
M  V30 32 C -5.6672 -5.4672 -0.4307 0
M  V30 33 H -4.9187 -7.7057 1.2451 0
M  V30 34 H -2.3123 -6.0172 -1.0899 0
M  V30 35 H -3.7800 -3.9981 1.1048 0
M  V30 36 H -6.2107 -5.9155 -1.2432 0
M  V30 37 C -8.2975 1.8370 0.4295 0
M  V30 38 C -6.9511 2.2819 0.0021 0
M  V30 39 C -6.5385 1.3959 -1.1493 0
M  V30 40 C -6.0324 2.1058 1.1505 0
M  V30 41 C -6.9509 3.7004 -0.4307 0
M  V30 42 H -8.8485 2.2968 1.2451 0
M  V30 43 H -6.4372 0.3397 -1.0899 0
M  V30 44 H -4.9705 2.3595 1.1048 0
M  V30 45 H -7.5452 4.0788 -1.2432 0
M  V30 46 N 5.2088 10.8411 3.6564 0
M  V30 47 C 6.5021 11.3034 4.0967 0
M  V30 48 C 7.4641 10.1899 4.3688 0
M  V30 49 C 7.7465 9.3233 3.1869 0
M  V30 50 N 8.7009 8.3039 3.6564 0
M  V30 51 H 6.9216 11.9216 3.2703 0
M  V30 52 H 6.4216 11.9073 5.0296 0
M  V30 53 H 8.4243 10.6494 4.6877 0
M  V30 54 H 7.1322 9.5450 5.2000 0
M  V30 55 H 6.8605 8.8094 2.7838 0
M  V30 56 H 8.2256 9.8566 2.3466 0
M  V30 57 N 5.2088 10.8411 -3.6564 0
M  V30 58 C 6.5319 11.3443 -3.9327 0
M  V30 59 C 7.6184 10.4024 -3.5188 0
M  V30 60 C 7.5638 9.0719 -4.1928 0
M  V30 61 N 8.7009 8.3039 -3.6564 0
M  V30 62 H 6.6008 11.4801 -5.0363 0
M  V30 63 H 6.7156 12.3118 -3.4113 0
M  V30 64 H 8.5885 10.8754 -3.7837 0
M  V30 65 H 7.6357 10.2380 -2.4281 0
M  V30 66 H 6.6401 8.5060 -3.9972 0
M  V30 67 H 7.6912 9.1211 -5.2889 0
M  V30 68 N 11.9201 -1.6037 3.6564 0
M  V30 69 C 12.7594 -2.6910 4.0967 0
M  V30 70 C 11.9977 -3.9499 4.3688 0
M  V30 71 C 11.2608 -4.4863 3.1869 0
M  V30 72 N 10.5862 -5.7090 3.6564 0
M  V30 73 H 13.4770 -2.8988 3.2703 0
M  V30 74 H 13.3089 -2.4278 5.0296 0
M  V30 75 H 12.7314 -4.7212 4.6877 0
M  V30 76 H 11.2818 -3.8336 5.2000 0
M  V30 77 H 10.4983 -3.8025 2.7838 0
M  V30 78 H 11.9161 -4.7771 2.3466 0
M  V30 79 N 11.9201 -1.6037 -3.6564 0
M  V30 80 C 12.8076 -2.7066 -3.9327 0
M  V30 81 C 12.2475 -4.0311 -3.5188 0
M  V30 82 C 10.9652 -4.3903 -4.1928 0
M  V30 83 N 10.5862 -5.7090 -3.6564 0
M  V30 84 H 12.9580 -2.7302 -5.0363 0
M  V30 85 H 13.7845 -2.5823 -3.4113 0
M  V30 86 H 12.9971 -4.8075 -3.7837 0
M  V30 87 H 12.0964 -4.0983 -2.4281 0
M  V30 88 H 10.1416 -3.6866 -3.9972 0
M  V30 89 H 11.0514 -4.4962 -5.2889 0
M  V30 90 N 2.1583 -11.8323 3.6564 0
M  V30 91 C 1.3836 -12.9665 4.0967 0
M  V30 92 C -0.0491 -12.6311 4.3688 0
M  V30 93 C -0.7869 -12.0960 3.1869 0
M  V30 94 N -2.1583 -11.8323 3.6564 0
M  V30 95 H 1.4076 -13.7132 3.2703 0
M  V30 96 H 1.8037 -13.4077 5.0296 0
M  V30 97 H -0.5559 -13.5672 4.6877 0
M  V30 98 H -0.1597 -11.9143 5.2000 0
M  V30 99 H -0.3722 -11.1595 2.7838 0
M  V30 100 H -0.8610 -12.8091 2.3466 0
M  V30 101 N 2.1583 -11.8323 -3.6564 0
M  V30 102 C 1.3836 -13.0171 -3.9327 0
M  V30 103 C -0.0491 -12.8937 -3.5188 0
M  V30 104 C -0.7869 -11.7852 -4.1928 0
M  V30 105 N -2.1583 -11.8323 -3.6564 0
M  V30 106 H 1.4076 -13.1674 -5.0363 0
M  V30 107 H 1.8037 -13.9078 -3.4113 0
M  V30 108 H -0.5559 -13.8466 -3.7837 0
M  V30 109 H -0.1597 -12.7708 -2.4281 0
M  V30 110 H -0.3722 -10.7845 -3.9972 0
M  V30 111 H -0.8610 -11.8999 -5.2889 0
M  V30 112 N -10.5862 -5.7090 3.6564 0
M  V30 113 C -11.9043 -5.3228 4.0967 0
M  V30 114 C -12.0280 -3.8565 4.3688 0
M  V30 115 C -11.7472 -2.9895 3.1869 0
M  V30 116 N -11.9201 -1.6037 3.6564 0
M  V30 117 H -12.6070 -5.5763 3.2703 0
M  V30 118 H -12.1941 -5.8586 5.0296 0
M  V30 119 H -13.0750 -3.6638 4.6877 0
M  V30 120 H -11.3805 -3.5299 5.2000 0
M  V30 121 H -10.7283 -3.0945 2.7838 0
M  V30 122 H -12.4482 -3.1393 2.3466 0
M  V30 123 N -10.5862 -5.7090 -3.6564 0
M  V30 124 C -11.9525 -5.3384 -3.9327 0
M  V30 125 C -12.2778 -3.9377 -3.5188 0
M  V30 126 C -11.4516 -2.8934 -4.1928 0
M  V30 127 N -11.9201 -1.6037 -3.6564 0
M  V30 128 H -12.0880 -5.4077 -5.0363 0
M  V30 129 H -12.6697 -6.0132 -3.4113 0
M  V30 130 H -13.3406 -3.7502 -3.7837 0
M  V30 131 H -12.1951 -3.7945 -2.4281 0
M  V30 132 H -10.3717 -2.9786 -3.9972 0
M  V30 133 H -11.5835 -2.8584 -5.2889 0
M  V30 134 N -8.7009 8.3039 3.6564 0
M  V30 135 C -8.7409 9.6768 4.0967 0
M  V30 136 C -7.3846 10.2476 4.3688 0
M  V30 137 C -6.4732 10.2484 3.1869 0
M  V30 138 N -5.2088 10.8411 3.6564 0
M  V30 139 H -9.1992 10.2668 3.2703 0
M  V30 140 H -9.3401 9.7869 5.0296 0
M  V30 141 H -7.5249 11.3028 4.6877 0
M  V30 142 H -6.8739 9.7327 5.2000 0
M  V30 143 H -6.2582 9.2470 2.7838 0
M  V30 144 H -6.8324 10.8689 2.3466 0
M  V30 145 N -8.7009 8.3039 -3.6564 0
M  V30 146 C -8.7706 9.7178 -3.9327 0
M  V30 147 C -7.5390 10.4601 -3.5188 0
M  V30 148 C -6.2905 9.9970 -4.1928 0
M  V30 149 N -5.2088 10.8411 -3.6564 0
M  V30 150 H -8.8784 9.8253 -5.0363 0
M  V30 151 H -9.6340 10.1915 -3.4113 0
M  V30 152 H -7.6891 11.5288 -3.7837 0
M  V30 153 H -7.3773 10.4257 -2.4281 0
M  V30 154 H -6.0378 8.9436 -3.9972 0
M  V30 155 H -6.2980 10.1333 -5.2889 0
M  V30 END ATOM
M  V30 BEGIN BOND
M  V30 1 1 1 2
M  V30 2 1 2 3
M  V30 3 1 2 4
M  V30 4 1 2 5
M  V30 5 1 1 6
M  V30 6 1 3 7
M  V30 7 1 4 8
M  V30 8 1 5 9
M  V30 9 1 10 11
M  V30 10 1 11 12
M  V30 11 1 11 13
M  V30 12 1 11 14
M  V30 13 1 10 15
M  V30 14 1 12 16
M  V30 15 1 13 17
M  V30 16 1 14 18
M  V30 17 1 19 20
M  V30 18 1 20 21
M  V30 19 1 20 22
M  V30 20 1 20 23
M  V30 21 1 19 24
M  V30 22 1 21 25
M  V30 23 1 22 26
M  V30 24 1 23 27
M  V30 25 1 28 29
M  V30 26 1 29 30
M  V30 27 1 29 31
M  V30 28 1 29 32
M  V30 29 1 28 33
M  V30 30 1 30 34
M  V30 31 1 31 35
M  V30 32 1 32 36
M  V30 33 1 37 38
M  V30 34 1 38 39
M  V30 35 1 38 40
M  V30 36 1 38 41
M  V30 37 1 37 42
M  V30 38 1 39 43
M  V30 39 1 40 44
M  V30 40 1 41 45
M  V30 41 1 46 47
M  V30 42 1 47 48
M  V30 43 1 48 49
M  V30 44 1 49 50
M  V30 45 1 47 51
M  V30 46 1 47 52
M  V30 47 1 48 53
M  V30 48 1 48 54
M  V30 49 1 49 55
M  V30 50 1 49 56
M  V30 51 1 57 58
M  V30 52 1 58 59
M  V30 53 1 59 60
M  V30 54 1 60 61
M  V30 55 1 58 62
M  V30 56 1 58 63
M  V30 57 1 59 64
M  V30 58 1 59 65
M  V30 59 1 60 66
M  V30 60 1 60 67
M  V30 61 1 68 69
M  V30 62 1 69 70
M  V30 63 1 70 71
M  V30 64 1 71 72
M  V30 65 1 69 73
M  V30 66 1 69 74
M  V30 67 1 70 75
M  V30 68 1 70 76
M  V30 69 1 71 77
M  V30 70 1 71 78
M  V30 71 1 79 80
M  V30 72 1 80 81
M  V30 73 1 81 82
M  V30 74 1 82 83
M  V30 75 1 80 84
M  V30 76 1 80 85
M  V30 77 1 81 86
M  V30 78 1 81 87
M  V30 79 1 82 88
M  V30 80 1 82 89
M  V30 81 1 90 91
M  V30 82 1 91 92
M  V30 83 1 92 93
M  V30 84 1 93 94
M  V30 85 1 91 95
M  V30 86 1 91 96
M  V30 87 1 92 97
M  V30 88 1 92 98
M  V30 89 1 93 99
M  V30 90 1 93 100
M  V30 91 1 101 102
M  V30 92 1 102 103
M  V30 93 1 103 104
M  V30 94 1 104 105
M  V30 95 1 102 106
M  V30 96 1 102 107
M  V30 97 1 103 108
M  V30 98 1 103 109
M  V30 99 1 104 110
M  V30 100 1 104 111
M  V30 101 1 112 113
M  V30 102 1 113 114
M  V30 103 1 114 115
M  V30 104 1 115 116
M  V30 105 1 113 117
M  V30 106 1 113 118
M  V30 107 1 114 119
M  V30 108 1 114 120
M  V30 109 1 115 121
M  V30 110 1 115 122
M  V30 111 1 123 124
M  V30 112 1 124 125
M  V30 113 1 125 126
M  V30 114 1 126 127
M  V30 115 1 124 128
M  V30 116 1 124 129
M  V30 117 1 125 130
M  V30 118 1 125 131
M  V30 119 1 126 132
M  V30 120 1 126 133
M  V30 121 1 134 135
M  V30 122 1 135 136
M  V30 123 1 136 137
M  V30 124 1 137 138
M  V30 125 1 135 139
M  V30 126 1 135 140
M  V30 127 1 136 141
M  V30 128 1 136 142
M  V30 129 1 137 143
M  V30 130 1 137 144
M  V30 131 1 145 146
M  V30 132 1 146 147
M  V30 133 1 147 148
M  V30 134 1 148 149
M  V30 135 1 146 150
M  V30 136 1 146 151
M  V30 137 1 147 152
M  V30 138 1 147 153
M  V30 139 1 148 154
M  V30 140 1 148 155
M  V30 141 2 1 46
M  V30 142 2 10 50
M  V30 143 2 4 57
M  V30 144 2 12 61
M  V30 145 2 13 68
M  V30 146 2 19 72
M  V30 147 2 14 79
M  V30 148 2 21 83
M  V30 149 2 22 90
M  V30 150 2 28 94
M  V30 151 2 23 101
M  V30 152 2 30 105
M  V30 153 2 31 112
M  V30 154 2 37 116
M  V30 155 2 32 123
M  V30 156 2 39 127
M  V30 157 2 40 134
M  V30 158 2 3 138
M  V30 159 2 41 145
M  V30 160 2 5 149
M  V30 END BOND
M  V30 END CTAB
M  END

$$$$
