
     RDKit          3D

  0  0  0  0  0  0  0  0  0  0999 V3000
M  V30 BEGIN CTAB
M  V30 COUNTS 98 100 0 0 0
M  V30 BEGIN ATOM
M  V30 1 C -1.2177 -0.7031 8.7022 0
M  V30 2 C 0.0086 -0.0004 9.1680 0
M  V30 3 C 1.2247 -0.7108 8.7022 0
M  V30 4 C -0.0069 1.4139 8.7022 0
M  V30 5 H -1.4078 -0.8404 7.6534 0
M  V30 6 H 0.0251 0.0401 10.2798 0
M  V30 7 H 1.3413 -0.8102 7.6138 0
M  V30 8 H 0.7762 2.1298 8.9133 0
M  V30 9 C -7.5112 -4.3366 -1.5750 0
M  V30 10 C -7.4859 -4.3166 -3.0628 0
M  V30 11 C -7.5157 -2.9213 -3.5656 0
M  V30 12 C -6.2890 -5.0488 -3.5616 0
M  V30 13 H -6.7342 -3.8604 -1.0055 0
M  V30 14 H -8.3702 -4.8582 -3.4660 0
M  V30 15 H -6.6844 -2.2746 -3.2512 0
M  V30 16 H -6.0480 -5.1735 -4.6089 0
M  V30 17 C 7.5112 -4.3366 -1.5750 0
M  V30 18 C 7.4812 -4.3247 -3.0628 0
M  V30 19 C 6.2878 -5.0481 -3.5656 0
M  V30 20 C 7.5169 -2.9220 -3.5616 0
M  V30 21 H 6.7103 -3.9018 -1.0055 0
M  V30 22 H 8.3924 -4.8197 -3.4660 0
M  V30 23 H 5.3121 -4.6515 -3.2512 0
M  V30 24 H 7.5044 -2.6510 -4.6089 0
M  V30 25 C 0.0000 8.6732 -1.5750 0
M  V30 26 C 0.0047 8.6412 -3.0628 0
M  V30 27 C 1.2279 7.9694 -3.5656 0
M  V30 28 C -1.2279 7.9708 -3.5616 0
M  V30 29 H 0.0239 7.7622 -1.0055 0
M  V30 30 H -0.0222 9.6779 -3.4660 0
M  V30 31 H 1.3723 6.9262 -3.2512 0
M  V30 32 H -1.4564 7.8245 -4.6089 0
M  V30 33 N -3.2854 -1.8968 5.3258 0
M  V30 34 C -4.5738 -2.5416 5.3940 0
M  V30 35 C -5.2998 -2.5462 4.0856 0
M  V30 36 C -4.5750 -3.2492 2.9865 0
M  V30 37 N -5.4436 -3.1429 1.8014 0
M  V30 38 H -4.3887 -3.6010 5.6846 0
M  V30 39 H -5.2371 -2.0457 6.1394 0
M  V30 40 H -6.2664 -3.0716 4.2426 0
M  V30 41 H -5.5473 -1.5278 3.7416 0
M  V30 42 H -3.5964 -2.8096 2.7398 0
M  V30 43 H -4.4116 -4.3250 3.1761 0
M  V30 44 N 3.2888 -1.9007 5.3258 0
M  V30 45 C 4.4913 -2.6943 5.3940 0
M  V30 46 C 4.8583 -3.3207 4.0855 0
M  V30 47 C 5.1049 -2.3414 2.9866 0
M  V30 48 N 5.4471 -3.1467 1.8014 0
M  V30 49 H 5.3163 -2.0046 5.6848 0
M  V30 50 H 4.3933 -3.5169 6.1393 0
M  V30 51 H 5.7964 -3.8953 4.2425 0
M  V30 52 H 4.0998 -4.0441 3.7414 0
M  V30 53 H 4.2351 -1.7135 2.7399 0
M  V30 54 H 5.9550 -1.6622 3.1763 0
M  V30 55 N -0.0035 3.7975 5.3258 0
M  V30 56 C 0.0816 5.2357 5.3940 0
M  V30 57 C 0.4408 5.8670 4.0857 0
M  V30 58 C -0.5299 5.5902 2.9864 0
M  V30 59 N -0.0035 6.2896 1.8014 0
M  V30 60 H -0.9286 5.6046 5.6843 0
M  V30 61 H 0.8424 5.5626 6.1397 0
M  V30 62 H 0.4685 6.9667 4.2427 0
M  V30 63 H 1.4468 5.5725 3.7420 0
M  V30 64 H -0.6380 4.5230 2.7396 0
M  V30 65 H -1.5435 5.9863 3.1756 0
M  V30 66 N -2.1589 -5.0485 -3.5636 0
M  V30 67 C -1.3842 -5.9905 -4.3336 0
M  V30 68 C 0.0485 -5.5873 -4.4884 0
M  V30 69 C 0.7863 -5.4447 -3.1989 0
M  V30 70 N 2.1576 -5.0485 -3.5636 0
M  V30 71 H -1.4083 -6.9565 -3.7791 0
M  V30 72 H -1.8043 -6.1211 -5.3573 0
M  V30 73 H 0.5552 -6.3786 -5.0816 0
M  V30 74 H 0.1591 -4.6483 -5.0567 0
M  V30 75 H 0.3716 -4.6791 -2.5255 0
M  V30 76 H 0.8604 -6.3830 -2.6209 0
M  V30 77 N -5.4509 0.6557 -3.5636 0
M  V30 78 C -5.9651 1.8470 -4.1934 0
M  V30 79 C -5.2582 3.0932 -3.7616 0
M  V30 80 C -3.7957 3.1008 -4.0590 0
M  V30 81 N -3.2927 4.3939 -3.5636 0
M  V30 82 H -5.8049 1.7267 -5.2892 0
M  V30 83 H -7.0485 1.9874 -3.9735 0
M  V30 84 H -5.7184 3.9441 -4.3086 0
M  V30 85 H -5.3943 3.2995 -2.6865 0
M  V30 86 H -3.2315 2.2962 -3.5631 0
M  V30 87 H -3.5590 3.0498 -5.1367 0
M  V30 88 N 5.4515 0.6546 -3.5636 0
M  V30 89 C 5.8801 1.7965 -4.3336 0
M  V30 90 C 4.8145 2.8356 -4.4884 0
M  V30 91 C 4.3221 3.4033 -3.1989 0
M  V30 92 N 3.2933 4.3928 -3.5636 0
M  V30 93 H 6.7286 2.2586 -3.7791 0
M  V30 94 H 6.2031 1.4979 -5.3573 0
M  V30 95 H 5.2464 3.6702 -5.0816 0
M  V30 96 H 3.9460 2.4619 -5.0567 0
M  V30 97 H 3.8664 2.6614 -2.5255 0
M  V30 98 H 5.0976 3.9366 -2.6209 0
M  V30 END ATOM
M  V30 BEGIN BOND
M  V30 1 1 1 2
M  V30 2 1 2 3
M  V30 3 1 2 4
M  V30 4 1 1 5
M  V30 5 1 2 6
M  V30 6 1 3 7
M  V30 7 1 4 8
M  V30 8 1 9 10
M  V30 9 1 10 11
M  V30 10 1 10 12
M  V30 11 1 9 13
M  V30 12 1 10 14
M  V30 13 1 11 15
M  V30 14 1 12 16
M  V30 15 1 17 18
M  V30 16 1 18 19
M  V30 17 1 18 20
M  V30 18 1 17 21
M  V30 19 1 18 22
M  V30 20 1 19 23
M  V30 21 1 20 24
M  V30 22 1 25 26
M  V30 23 1 26 27
M  V30 24 1 26 28
M  V30 25 1 25 29
M  V30 26 1 26 30
M  V30 27 1 27 31
M  V30 28 1 28 32
M  V30 29 1 33 34
M  V30 30 1 34 35
M  V30 31 1 35 36
M  V30 32 1 36 37
M  V30 33 1 34 38
M  V30 34 1 34 39
M  V30 35 1 35 40
M  V30 36 1 35 41
M  V30 37 1 36 42
M  V30 38 1 36 43
M  V30 39 1 44 45
M  V30 40 1 45 46
M  V30 41 1 46 47
M  V30 42 1 47 48
M  V30 43 1 45 49
M  V30 44 1 45 50
M  V30 45 1 46 51
M  V30 46 1 46 52
M  V30 47 1 47 53
M  V30 48 1 47 54
M  V30 49 1 55 56
M  V30 50 1 56 57
M  V30 51 1 57 58
M  V30 52 1 58 59
M  V30 53 1 56 60
M  V30 54 1 56 61
M  V30 55 1 57 62
M  V30 56 1 57 63
M  V30 57 1 58 64
M  V30 58 1 58 65
M  V30 59 1 66 67
M  V30 60 1 67 68
M  V30 61 1 68 69
M  V30 62 1 69 70
M  V30 63 1 67 71
M  V30 64 1 67 72
M  V30 65 1 68 73
M  V30 66 1 68 74
M  V30 67 1 69 75
M  V30 68 1 69 76
M  V30 69 1 77 78
M  V30 70 1 78 79
M  V30 71 1 79 80
M  V30 72 1 80 81
M  V30 73 1 78 82
M  V30 74 1 78 83
M  V30 75 1 79 84
M  V30 76 1 79 85
M  V30 77 1 80 86
M  V30 78 1 80 87
M  V30 79 1 88 89
M  V30 80 1 89 90
M  V30 81 1 90 91
M  V30 82 1 91 92
M  V30 83 1 89 93
M  V30 84 1 89 94
M  V30 85 1 90 95
M  V30 86 1 90 96
M  V30 87 1 91 97
M  V30 88 1 91 98
M  V30 89 2 1 33
M  V30 90 2 9 37
M  V30 91 2 3 44
M  V30 92 2 17 48
M  V30 93 2 4 55
M  V30 94 2 25 59
M  V30 95 2 12 66
M  V30 96 2 19 70
M  V30 97 2 11 77
M  V30 98 2 28 81
M  V30 99 2 20 88
M  V30 100 2 27 92
M  V30 END BOND
M  V30 END CTAB
M  END

$$$$
