
     RDKit          3D

  0  0  0  0  0  0  0  0  0  0999 V3000
M  V30 BEGIN CTAB
M  V30 COUNTS 98 100 0 0 0
M  V30 BEGIN ATOM
M  V30 1 C 6.6813 -1.2719 7.5293 0
M  V30 2 C 7.4398 0.0046 7.4295 0
M  V30 3 C 8.1033 0.1143 6.1073 0
M  V30 4 C 6.5313 1.1576 7.6793 0
M  V30 5 H 5.8847 -1.4931 6.8427 0
M  V30 6 H 8.2192 0.0473 8.2224 0
M  V30 7 H 7.4415 0.0991 5.2299 0
M  V30 8 H 6.8468 2.1923 7.6623 0
M  V30 9 C -6.6813 -1.2719 7.5293 0
M  V30 10 C -7.4338 0.0085 7.4355 0
M  V30 11 C -6.5325 1.1615 7.6781 0
M  V30 12 C -8.1020 0.1104 6.1086 0
M  V30 13 H -5.8541 -1.4727 6.8733 0
M  V30 14 H -8.2476 0.0283 8.1940 0
M  V30 15 H -5.6860 1.2694 6.9853 0
M  V30 16 H -8.7098 0.9503 5.7993 0
M  V30 17 C 6.6813 -1.2719 -7.5293 0
M  V30 18 C 7.4338 0.0085 -7.4355 0
M  V30 19 C 6.5325 1.1615 -7.6781 0
M  V30 20 C 8.1020 0.1104 -6.1086 0
M  V30 21 H 5.8541 -1.4727 -6.8733 0
M  V30 22 H 8.2476 0.0283 -8.1940 0
M  V30 23 H 5.6860 1.2694 -6.9853 0
M  V30 24 H 8.7098 0.9503 -5.7993 0
M  V30 25 C -6.6813 -1.2719 -7.5293 0
M  V30 26 C -7.4398 0.0046 -7.4295 0
M  V30 27 C -8.1033 0.1143 -6.1073 0
M  V30 28 C -6.5313 1.1576 -7.6793 0
M  V30 29 H -5.8847 -1.4931 -6.8427 0
M  V30 30 H -8.2192 0.0473 -8.2224 0
M  V30 31 H -7.4415 0.0991 -5.2299 0
M  V30 32 H -6.8468 2.1923 -7.6623 0
M  V30 33 N 2.1583 -7.1053 7.1053 0
M  V30 34 C 1.3836 -7.9028 8.0241 0
M  V30 35 C -0.0491 -7.4792 8.1082 0
M  V30 36 C -0.7869 -7.5577 6.8133 0
M  V30 37 N -2.1583 -7.1053 7.1053 0
M  V30 38 H 1.4076 -8.9489 7.6419 0
M  V30 39 H 1.8037 -7.8575 9.0552 0
M  V30 40 H -0.5559 -8.1582 8.8272 0
M  V30 41 H -0.1597 -6.4573 8.5087 0
M  V30 42 H -0.3722 -6.9176 6.0196 0
M  V30 43 H -0.8610 -8.5806 6.4030 0
M  V30 44 N 2.1583 7.1053 7.1053 0
M  V30 45 C 1.3836 8.0241 7.9028 0
M  V30 46 C -0.0491 8.1082 7.4792 0
M  V30 47 C -0.7869 6.8133 7.5577 0
M  V30 48 N -2.1583 7.1053 7.1053 0
M  V30 49 H 1.4076 7.6419 8.9489 0
M  V30 50 H 1.8037 9.0552 7.8575 0
M  V30 51 H -0.5559 8.8272 8.1582 0
M  V30 52 H -0.1597 8.5087 6.4573 0
M  V30 53 H -0.3722 6.0196 6.9176 0
M  V30 54 H -0.8610 6.4030 8.5806 0
M  V30 55 N 2.1583 -7.1053 -7.1053 0
M  V30 56 C 1.3836 -8.0241 -7.9028 0
M  V30 57 C -0.0491 -8.1082 -7.4792 0
M  V30 58 C -0.7869 -6.8133 -7.5577 0
M  V30 59 N -2.1583 -7.1053 -7.1053 0
M  V30 60 H 1.4076 -7.6419 -8.9489 0
M  V30 61 H 1.8037 -9.0552 -7.8575 0
M  V30 62 H -0.5559 -8.8272 -8.1582 0
M  V30 63 H -0.1597 -8.5087 -6.4573 0
M  V30 64 H -0.3722 -6.0196 -6.9176 0
M  V30 65 H -0.8610 -6.4030 -8.5806 0
M  V30 66 N 2.1583 7.1053 -7.1053 0
M  V30 67 C 1.3836 7.9028 -8.0241 0
M  V30 68 C -0.0491 7.4792 -8.1082 0
M  V30 69 C -0.7869 7.5577 -6.8133 0
M  V30 70 N -2.1583 7.1053 -7.1053 0
M  V30 71 H 1.4076 8.9489 -7.6419 0
M  V30 72 H 1.8037 7.8575 -9.0552 0
M  V30 73 H -0.5559 8.1582 -8.8272 0
M  V30 74 H -0.1597 6.4573 -8.5087 0
M  V30 75 H -0.3722 6.9176 -6.0196 0
M  V30 76 H -0.8610 8.5806 -6.4030 0
M  V30 77 N 8.1027 0.1124 2.1576 0
M  V30 78 C 9.3174 0.0434 1.3830 0
M  V30 79 C 9.0823 -0.3189 -0.0497 0
M  V30 80 C 8.2088 0.6403 -0.7876 0
M  V30 81 N 8.1027 0.1124 -2.1589 0
M  V30 82 H 9.7728 1.0598 1.4070 0
M  V30 83 H 10.0249 -0.7080 1.8031 0
M  V30 84 H 10.0711 -0.3335 -0.5565 0
M  V30 85 H 8.6568 -1.3307 -0.1603 0
M  V30 86 H 7.1935 0.7348 -0.3729 0
M  V30 87 H 8.6278 1.6595 -0.8617 0
M  V30 88 N -8.1027 0.1124 2.1589 0
M  V30 89 C -9.3150 0.2150 1.3842 0
M  V30 90 C -9.0699 0.5706 -0.0485 0
M  V30 91 C -8.2234 -0.4124 -0.7863 0
M  V30 92 N -8.1027 0.1124 -2.1576 0
M  V30 93 H -9.7984 -0.7884 1.4083 0
M  V30 94 H -10.0014 0.9857 1.8043 0
M  V30 95 H -10.0580 0.6126 -0.5552 0
M  V30 96 H -8.6166 1.5702 -0.1590 0
M  V30 97 H -7.2111 -0.5351 -0.3716 0
M  V30 98 H -8.6705 -1.4197 -0.8604 0
M  V30 END ATOM
M  V30 BEGIN BOND
M  V30 1 1 1 2
M  V30 2 1 2 3
M  V30 3 1 2 4
M  V30 4 1 1 5
M  V30 5 1 2 6
M  V30 6 1 3 7
M  V30 7 1 4 8
M  V30 8 1 9 10
M  V30 9 1 10 11
M  V30 10 1 10 12
M  V30 11 1 9 13
M  V30 12 1 10 14
M  V30 13 1 11 15
M  V30 14 1 12 16
M  V30 15 1 17 18
M  V30 16 1 18 19
M  V30 17 1 18 20
M  V30 18 1 17 21
M  V30 19 1 18 22
M  V30 20 1 19 23
M  V30 21 1 20 24
M  V30 22 1 25 26
M  V30 23 1 26 27
M  V30 24 1 26 28
M  V30 25 1 25 29
M  V30 26 1 26 30
M  V30 27 1 27 31
M  V30 28 1 28 32
M  V30 29 1 33 34
M  V30 30 1 34 35
M  V30 31 1 35 36
M  V30 32 1 36 37
M  V30 33 1 34 38
M  V30 34 1 34 39
M  V30 35 1 35 40
M  V30 36 1 35 41
M  V30 37 1 36 42
M  V30 38 1 36 43
M  V30 39 1 44 45
M  V30 40 1 45 46
M  V30 41 1 46 47
M  V30 42 1 47 48
M  V30 43 1 45 49
M  V30 44 1 45 50
M  V30 45 1 46 51
M  V30 46 1 46 52
M  V30 47 1 47 53
M  V30 48 1 47 54
M  V30 49 1 55 56
M  V30 50 1 56 57
M  V30 51 1 57 58
M  V30 52 1 58 59
M  V30 53 1 56 60
M  V30 54 1 56 61
M  V30 55 1 57 62
M  V30 56 1 57 63
M  V30 57 1 58 64
M  V30 58 1 58 65
M  V30 59 1 66 67
M  V30 60 1 67 68
M  V30 61 1 68 69
M  V30 62 1 69 70
M  V30 63 1 67 71
M  V30 64 1 67 72
M  V30 65 1 68 73
M  V30 66 1 68 74
M  V30 67 1 69 75
M  V30 68 1 69 76
M  V30 69 1 77 78
M  V30 70 1 78 79
M  V30 71 1 79 80
M  V30 72 1 80 81
M  V30 73 1 78 82
M  V30 74 1 78 83
M  V30 75 1 79 84
M  V30 76 1 79 85
M  V30 77 1 80 86
M  V30 78 1 80 87
M  V30 79 1 88 89
M  V30 80 1 89 90
M  V30 81 1 90 91
M  V30 82 1 91 92
M  V30 83 1 89 93
M  V30 84 1 89 94
M  V30 85 1 90 95
M  V30 86 1 90 96
M  V30 87 1 91 97
M  V30 88 1 91 98
M  V30 89 2 1 33
M  V30 90 2 9 37
M  V30 91 2 4 44
M  V30 92 2 11 48
M  V30 93 2 17 55
M  V30 94 2 25 59
M  V30 95 2 19 66
M  V30 96 2 28 70
M  V30 97 2 3 77
M  V30 98 2 20 81
M  V30 99 2 12 88
M  V30 100 2 27 92
M  V30 END BOND
M  V30 END CTAB
M  END

$$$$
