
     RDKit          3D

  0  0  0  0  0  0  0  0  0  0999 V3000
M  V30 BEGIN CTAB
M  V30 COUNTS 88 92 0 0 0
M  V30 BEGIN ATOM
M  V30 1 N -9.1762 6.2485 -9.1762 0
M  V30 2 C -8.1209 7.2277 -9.3450 0
M  V30 3 C -8.6552 8.6382 -9.3715 0
M  V30 4 C -7.5342 9.6046 -9.5462 0
M  V30 5 N -6.5476 9.5518 -8.5014 0
M  V30 6 C -9.5321 8.9364 -8.1849 0
M  V30 7 N -8.8771 8.8005 -6.9233 0
M  V30 8 H -7.6134 6.9796 -10.2984 0
M  V30 9 H -7.3939 7.0798 -8.5213 0
M  V30 10 H -9.3075 8.7136 -10.2712 0
M  V30 11 H -7.0151 9.3580 -10.4953 0
M  V30 12 H -7.9088 10.6432 -9.6656 0
M  V30 13 H -10.0500 9.9115 -8.2819 0
M  V30 14 H -10.3600 8.1689 -8.2119 0
M  V30 15 N -9.1762 -6.2485 -9.1762 0
M  V30 16 C -9.3450 -7.2277 -8.1209 0
M  V30 17 C -9.3715 -8.6382 -8.6552 0
M  V30 18 C -9.5462 -9.6046 -7.5342 0
M  V30 19 N -8.5014 -9.5518 -6.5476 0
M  V30 20 C -8.1849 -8.9364 -9.5321 0
M  V30 21 N -6.9233 -8.8005 -8.8771 0
M  V30 22 H -10.2984 -6.9796 -7.6134 0
M  V30 23 H -8.5213 -7.0798 -7.3939 0
M  V30 24 H -10.2712 -8.7136 -9.3075 0
M  V30 25 H -10.4953 -9.3580 -7.0151 0
M  V30 26 H -9.6656 -10.6432 -7.9088 0
M  V30 27 H -8.2819 -9.9115 -10.0500 0
M  V30 28 H -8.2119 -8.1689 -10.3600 0
M  V30 29 N 6.2485 9.1762 -9.1762 0
M  V30 30 C 7.2277 8.1209 -9.3450 0
M  V30 31 C 8.6382 8.6552 -9.3715 0
M  V30 32 C 9.6046 7.5342 -9.5462 0
M  V30 33 N 9.5518 6.5476 -8.5014 0
M  V30 34 C 8.9364 9.5321 -8.1849 0
M  V30 35 N 8.8005 8.8771 -6.9233 0
M  V30 36 H 6.9796 7.6134 -10.2984 0
M  V30 37 H 7.0798 7.3939 -8.5213 0
M  V30 38 H 8.7136 9.3075 -10.2712 0
M  V30 39 H 9.3580 7.0151 -10.4953 0
M  V30 40 H 10.6432 7.9088 -9.6656 0
M  V30 41 H 9.9115 10.0500 -8.2819 0
M  V30 42 H 8.1689 10.3600 -8.2119 0
M  V30 43 N 6.2485 -9.1762 -9.1762 0
M  V30 44 C 7.2277 -9.3450 -8.1209 0
M  V30 45 C 8.6382 -9.3715 -8.6552 0
M  V30 46 C 9.6046 -9.5462 -7.5342 0
M  V30 47 N 9.5518 -8.5014 -6.5476 0
M  V30 48 C 8.9364 -8.1849 -9.5321 0
M  V30 49 N 8.8005 -6.9233 -8.8771 0
M  V30 50 H 6.9796 -10.2984 -7.6134 0
M  V30 51 H 7.0798 -8.5213 -7.3939 0
M  V30 52 H 8.7136 -10.2712 -9.3075 0
M  V30 53 H 9.3580 -10.4953 -7.0151 0
M  V30 54 H 10.6432 -9.6656 -7.9088 0
M  V30 55 H 9.9115 -8.2819 -10.0500 0
M  V30 56 H 8.1689 -8.2119 -10.3600 0
M  V30 57 C -8.7743 8.7743 7.0522 0
M  V30 58 C -8.4695 8.4629 8.4751 0
M  V30 59 C -8.7807 7.0441 8.7761 0
M  V30 60 C -7.0459 8.7824 8.7726 0
M  V30 61 H -8.2810 8.2472 6.2562 0
M  V30 62 H -9.0783 9.1098 9.1452 0
M  V30 63 H -8.2334 6.2927 8.1896 0
M  V30 64 H -6.5832 8.6428 9.7405 0
M  V30 65 C -8.7743 -8.7743 7.0522 0
M  V30 66 C -8.4629 -8.4695 8.4751 0
M  V30 67 C -7.0441 -8.7807 8.7761 0
M  V30 68 C -8.7824 -7.0459 8.7726 0
M  V30 69 H -8.2472 -8.2810 6.2562 0
M  V30 70 H -9.1098 -9.0783 9.1452 0
M  V30 71 H -6.2927 -8.2334 8.1896 0
M  V30 72 H -8.6428 -6.5832 9.7405 0
M  V30 73 C 8.7743 8.7743 7.0522 0
M  V30 74 C 8.4629 8.4695 8.4751 0
M  V30 75 C 7.0441 8.7807 8.7761 0
M  V30 76 C 8.7824 7.0459 8.7726 0
M  V30 77 H 8.2472 8.2810 6.2562 0
M  V30 78 H 9.1098 9.0783 9.1452 0
M  V30 79 H 6.2927 8.2334 8.1896 0
M  V30 80 H 8.6428 6.5832 9.7405 0
M  V30 81 C 8.7743 -8.7743 7.0522 0
M  V30 82 C 8.4695 -8.4629 8.4751 0
M  V30 83 C 8.7807 -7.0441 8.7761 0
M  V30 84 C 7.0459 -8.7824 8.7726 0
M  V30 85 H 8.2810 -8.2472 6.2562 0
M  V30 86 H 9.0783 -9.1098 9.1452 0
M  V30 87 H 8.2334 -6.2927 8.1896 0
M  V30 88 H 6.5832 -8.6428 9.7405 0
M  V30 END ATOM
M  V30 BEGIN BOND
M  V30 1 1 1 2
M  V30 2 1 2 3
M  V30 3 1 3 4
M  V30 4 1 4 5
M  V30 5 1 3 6
M  V30 6 1 6 7
M  V30 7 1 2 8
M  V30 8 1 2 9
M  V30 9 1 3 10
M  V30 10 1 4 11
M  V30 11 1 4 12
M  V30 12 1 6 13
M  V30 13 1 6 14
M  V30 14 1 15 16
M  V30 15 1 16 17
M  V30 16 1 17 18
M  V30 17 1 18 19
M  V30 18 1 17 20
M  V30 19 1 20 21
M  V30 20 1 16 22
M  V30 21 1 16 23
M  V30 22 1 17 24
M  V30 23 1 18 25
M  V30 24 1 18 26
M  V30 25 1 20 27
M  V30 26 1 20 28
M  V30 27 1 29 30
M  V30 28 1 30 31
M  V30 29 1 31 32
M  V30 30 1 32 33
M  V30 31 1 31 34
M  V30 32 1 34 35
M  V30 33 1 30 36
M  V30 34 1 30 37
M  V30 35 1 31 38
M  V30 36 1 32 39
M  V30 37 1 32 40
M  V30 38 1 34 41
M  V30 39 1 34 42
M  V30 40 1 43 44
M  V30 41 1 44 45
M  V30 42 1 45 46
M  V30 43 1 46 47
M  V30 44 1 45 48
M  V30 45 1 48 49
M  V30 46 1 44 50
M  V30 47 1 44 51
M  V30 48 1 45 52
M  V30 49 1 46 53
M  V30 50 1 46 54
M  V30 51 1 48 55
M  V30 52 1 48 56
M  V30 53 1 57 58
M  V30 54 1 58 59
M  V30 55 1 58 60
M  V30 56 1 57 61
M  V30 57 1 58 62
M  V30 58 1 59 63
M  V30 59 1 60 64
M  V30 60 1 65 66
M  V30 61 1 66 67
M  V30 62 1 66 68
M  V30 63 1 65 69
M  V30 64 1 66 70
M  V30 65 1 67 71
M  V30 66 1 68 72
M  V30 67 1 73 74
M  V30 68 1 74 75
M  V30 69 1 74 76
M  V30 70 1 73 77
M  V30 71 1 74 78
M  V30 72 1 75 79
M  V30 73 1 76 80
M  V30 74 1 81 82
M  V30 75 1 82 83
M  V30 76 1 82 84
M  V30 77 1 81 85
M  V30 78 1 82 86
M  V30 79 1 83 87
M  V30 80 1 84 88
M  V30 81 1 1 15
M  V30 82 1 5 29
M  V30 83 2 7 57
M  V30 84 1 21 43
M  V30 85 2 19 65
M  V30 86 2 35 73
M  V30 87 1 33 49
M  V30 88 2 47 81
M  V30 89 1 60 75
M  V30 90 1 59 68
M  V30 91 1 67 84
M  V30 92 1 76 83
M  V30 END BOND
M  V30 END CTAB
M  END

$$$$
