
     RDKit          3D

  0  0  0  0  0  0  0  0  0  0999 V3000
M  V30 BEGIN CTAB
M  V30 COUNTS 124 128 0 0 0
M  V30 BEGIN ATOM
M  V30 1 C -8.6562 -7.5904 0.5329 0
M  V30 2 C -7.3092 -7.3208 -0.0207 0
M  V30 3 C -6.3424 -7.3456 1.1392 0
M  V30 4 C -7.3391 -5.9784 -0.6458 0
M  V30 5 C -6.9132 -8.3365 -1.0263 0
M  V30 6 H -9.5553 -7.6333 -0.0754 0
M  V30 7 H -6.3933 -6.6968 1.9793 0
M  V30 8 H -6.4688 -5.5314 -1.1325 0
M  V30 9 H -6.8271 -9.3873 -0.8144 0
M  V30 10 C -8.6562 7.5904 0.5329 0
M  V30 11 C -7.2993 7.3308 -0.0008 0
M  V30 12 C -7.4363 6.2517 -1.0485 0
M  V30 13 C -6.4550 6.8625 1.1224 0
M  V30 14 C -6.7035 8.5463 -0.6068 0
M  V30 15 H -8.8644 8.3242 1.3064 0
M  V30 16 H -7.8141 5.2761 -0.8621 0
M  V30 17 H -5.4013 6.5989 1.0025 0
M  V30 18 H -7.1376 9.0768 -1.4353 0
M  V30 19 C 7.5904 -8.6562 0.5329 0
M  V30 20 C 7.3208 -7.3092 -0.0207 0
M  V30 21 C 7.3456 -6.3424 1.1392 0
M  V30 22 C 5.9784 -7.3391 -0.6458 0
M  V30 23 C 8.3365 -6.9132 -1.0263 0
M  V30 24 H 7.6333 -9.5553 -0.0754 0
M  V30 25 H 6.6968 -6.3933 1.9793 0
M  V30 26 H 5.5314 -6.4688 -1.1325 0
M  V30 27 H 9.3873 -6.8271 -0.8144 0
M  V30 28 C 7.5904 8.6562 0.5329 0
M  V30 29 C 7.3308 7.2993 -0.0008 0
M  V30 30 C 6.2517 7.4363 -1.0485 0
M  V30 31 C 6.8625 6.4550 1.1224 0
M  V30 32 C 8.5463 6.7035 -0.6068 0
M  V30 33 H 8.3242 8.8644 1.3064 0
M  V30 34 H 5.2761 7.8141 -0.8621 0
M  V30 35 H 6.5989 5.4013 1.0025 0
M  V30 36 H 9.0768 7.1376 -1.4353 0
M  V30 37 N -14.6255 -2.1583 7.3127 0
M  V30 38 C -15.6726 -1.3836 7.9322 0
M  V30 39 C -15.2973 0.0491 8.1460 0
M  V30 40 C -14.9623 0.7869 6.8926 0
M  V30 41 N -14.6255 2.1583 7.3127 0
M  V30 42 H -16.5442 -1.4076 7.2388 0
M  V30 43 H -15.9557 -1.8037 8.9247 0
M  V30 44 H -16.1689 0.5559 8.6134 0
M  V30 45 H -14.4545 0.1597 8.8490 0
M  V30 46 H -14.1041 0.3722 6.3421 0
M  V30 47 H -15.8029 0.8610 6.1800 0
M  V30 48 N -14.6255 -2.1583 -7.3127 0
M  V30 49 C -15.7494 -1.3836 -7.7788 0
M  V30 50 C -15.6951 0.0491 -7.3503 0
M  V30 51 C -14.4915 0.7869 -7.8343 0
M  V30 52 N -14.6255 2.1583 -7.3127 0
M  V30 53 H -15.7175 -1.4076 -8.8921 0
M  V30 54 H -16.7132 -1.8037 -7.4097 0
M  V30 55 H -16.5920 0.5559 -7.7671 0
M  V30 56 H -15.7519 0.1597 -6.2542 0
M  V30 57 H -13.5361 0.3722 -7.4780 0
M  V30 58 H -14.4257 0.8610 -8.9344 0
M  V30 59 N -2.1583 14.6255 7.3127 0
M  V30 60 C -1.3836 15.6726 7.9322 0
M  V30 61 C 0.0491 15.2973 8.1460 0
M  V30 62 C 0.7869 14.9623 6.8926 0
M  V30 63 N 2.1583 14.6255 7.3127 0
M  V30 64 H -1.4076 16.5442 7.2388 0
M  V30 65 H -1.8037 15.9557 8.9247 0
M  V30 66 H 0.5559 16.1689 8.6134 0
M  V30 67 H 0.1597 14.4545 8.8490 0
M  V30 68 H 0.3722 14.1041 6.3421 0
M  V30 69 H 0.8610 15.8029 6.1800 0
M  V30 70 N -2.1583 14.6255 -7.3127 0
M  V30 71 C -1.3836 15.7494 -7.7788 0
M  V30 72 C 0.0491 15.6951 -7.3503 0
M  V30 73 C 0.7869 14.4915 -7.8343 0
M  V30 74 N 2.1583 14.6255 -7.3127 0
M  V30 75 H -1.4076 15.7175 -8.8921 0
M  V30 76 H -1.8037 16.7132 -7.4097 0
M  V30 77 H 0.5559 16.5920 -7.7671 0
M  V30 78 H 0.1597 15.7519 -6.2542 0
M  V30 79 H 0.3722 13.5361 -7.4780 0
M  V30 80 H 0.8610 14.4257 -8.9344 0
M  V30 81 N -2.1583 -14.6255 7.3127 0
M  V30 82 C -1.3836 -15.7494 7.7788 0
M  V30 83 C 0.0491 -15.6951 7.3503 0
M  V30 84 C 0.7869 -14.4915 7.8343 0
M  V30 85 N 2.1583 -14.6255 7.3127 0
M  V30 86 H -1.4076 -15.7175 8.8921 0
M  V30 87 H -1.8037 -16.7132 7.4097 0
M  V30 88 H 0.5559 -16.5920 7.7671 0
M  V30 89 H 0.1597 -15.7519 6.2542 0
M  V30 90 H 0.3722 -13.5361 7.4780 0
M  V30 91 H 0.8610 -14.4257 8.9344 0
M  V30 92 N -2.1583 -14.6255 -7.3127 0
M  V30 93 C -1.3836 -15.6726 -7.9322 0
M  V30 94 C 0.0491 -15.2973 -8.1460 0
M  V30 95 C 0.7869 -14.9623 -6.8926 0
M  V30 96 N 2.1583 -14.6255 -7.3127 0
M  V30 97 H -1.4076 -16.5442 -7.2388 0
M  V30 98 H -1.8037 -15.9557 -8.9247 0
M  V30 99 H 0.5559 -16.1689 -8.6134 0
M  V30 100 H 0.1597 -14.4545 -8.8490 0
M  V30 101 H 0.3722 -14.1041 -6.3421 0
M  V30 102 H 0.8610 -15.8029 -6.1800 0
M  V30 103 N 14.6255 -2.1583 7.3127 0
M  V30 104 C 15.7494 -1.3836 7.7788 0
M  V30 105 C 15.6951 0.0491 7.3503 0
M  V30 106 C 14.4915 0.7869 7.8343 0
M  V30 107 N 14.6255 2.1583 7.3127 0
M  V30 108 H 15.7175 -1.4076 8.8921 0
M  V30 109 H 16.7132 -1.8037 7.4097 0
M  V30 110 H 16.5920 0.5559 7.7671 0
M  V30 111 H 15.7519 0.1597 6.2542 0
M  V30 112 H 13.5361 0.3722 7.4780 0
M  V30 113 H 14.4257 0.8610 8.9344 0
M  V30 114 N 14.6255 -2.1583 -7.3127 0
M  V30 115 C 15.6726 -1.3836 -7.9322 0
M  V30 116 C 15.2973 0.0491 -8.1460 0
M  V30 117 C 14.9623 0.7869 -6.8926 0
M  V30 118 N 14.6255 2.1583 -7.3127 0
M  V30 119 H 16.5442 -1.4076 -7.2388 0
M  V30 120 H 15.9557 -1.8037 -8.9247 0
M  V30 121 H 16.1689 0.5559 -8.6134 0
M  V30 122 H 14.4545 0.1597 -8.8490 0
M  V30 123 H 14.1041 0.3722 -6.3421 0
M  V30 124 H 15.8029 0.8610 -6.1800 0
M  V30 END ATOM
M  V30 BEGIN BOND
M  V30 1 1 1 2
M  V30 2 1 2 3
M  V30 3 1 2 4
M  V30 4 1 2 5
M  V30 5 1 1 6
M  V30 6 1 3 7
M  V30 7 1 4 8
M  V30 8 1 5 9
M  V30 9 1 10 11
M  V30 10 1 11 12
M  V30 11 1 11 13
M  V30 12 1 11 14
M  V30 13 1 10 15
M  V30 14 1 12 16
M  V30 15 1 13 17
M  V30 16 1 14 18
M  V30 17 1 19 20
M  V30 18 1 20 21
M  V30 19 1 20 22
M  V30 20 1 20 23
M  V30 21 1 19 24
M  V30 22 1 21 25
M  V30 23 1 22 26
M  V30 24 1 23 27
M  V30 25 1 28 29
M  V30 26 1 29 30
M  V30 27 1 29 31
M  V30 28 1 29 32
M  V30 29 1 28 33
M  V30 30 1 30 34
M  V30 31 1 31 35
M  V30 32 1 32 36
M  V30 33 1 37 38
M  V30 34 1 38 39
M  V30 35 1 39 40
M  V30 36 1 40 41
M  V30 37 1 38 42
M  V30 38 1 38 43
M  V30 39 1 39 44
M  V30 40 1 39 45
M  V30 41 1 40 46
M  V30 42 1 40 47
M  V30 43 1 48 49
M  V30 44 1 49 50
M  V30 45 1 50 51
M  V30 46 1 51 52
M  V30 47 1 49 53
M  V30 48 1 49 54
M  V30 49 1 50 55
M  V30 50 1 50 56
M  V30 51 1 51 57
M  V30 52 1 51 58
M  V30 53 1 59 60
M  V30 54 1 60 61
M  V30 55 1 61 62
M  V30 56 1 62 63
M  V30 57 1 60 64
M  V30 58 1 60 65
M  V30 59 1 61 66
M  V30 60 1 61 67
M  V30 61 1 62 68
M  V30 62 1 62 69
M  V30 63 1 70 71
M  V30 64 1 71 72
M  V30 65 1 72 73
M  V30 66 1 73 74
M  V30 67 1 71 75
M  V30 68 1 71 76
M  V30 69 1 72 77
M  V30 70 1 72 78
M  V30 71 1 73 79
M  V30 72 1 73 80
M  V30 73 1 81 82
M  V30 74 1 82 83
M  V30 75 1 83 84
M  V30 76 1 84 85
M  V30 77 1 82 86
M  V30 78 1 82 87
M  V30 79 1 83 88
M  V30 80 1 83 89
M  V30 81 1 84 90
M  V30 82 1 84 91
M  V30 83 1 92 93
M  V30 84 1 93 94
M  V30 85 1 94 95
M  V30 86 1 95 96
M  V30 87 1 93 97
M  V30 88 1 93 98
M  V30 89 1 94 99
M  V30 90 1 94 100
M  V30 91 1 95 101
M  V30 92 1 95 102
M  V30 93 1 103 104
M  V30 94 1 104 105
M  V30 95 1 105 106
M  V30 96 1 106 107
M  V30 97 1 104 108
M  V30 98 1 104 109
M  V30 99 1 105 110
M  V30 100 1 105 111
M  V30 101 1 106 112
M  V30 102 1 106 113
M  V30 103 1 114 115
M  V30 104 1 115 116
M  V30 105 1 116 117
M  V30 106 1 117 118
M  V30 107 1 115 119
M  V30 108 1 115 120
M  V30 109 1 116 121
M  V30 110 1 116 122
M  V30 111 1 117 123
M  V30 112 1 117 124
M  V30 113 2 1 37
M  V30 114 2 10 41
M  V30 115 2 4 48
M  V30 116 2 12 52
M  V30 117 2 13 59
M  V30 118 2 28 63
M  V30 119 2 14 70
M  V30 120 2 30 74
M  V30 121 2 3 81
M  V30 122 2 19 85
M  V30 123 2 5 92
M  V30 124 2 22 96
M  V30 125 2 21 103
M  V30 126 2 31 107
M  V30 127 2 23 114
M  V30 128 2 32 118
M  V30 END BOND
M  V30 END CTAB
M  END

$$$$
