
     RDKit          3D

  0  0  0  0  0  0  0  0  0  0999 V3000
M  V30 BEGIN CTAB
M  V30 COUNTS 96 98 0 0 0
M  V30 BEGIN ATOM
M  V30 1 C -1.2177 -0.7031 9.7041 0
M  V30 2 C 0.0086 -0.0004 10.1699 0
M  V30 3 C 1.2247 -0.7108 9.7041 0
M  V30 4 C -0.0069 1.4139 9.7041 0
M  V30 5 H -1.4078 -0.8404 8.6553 0
M  V30 6 H 0.0251 0.0401 11.2817 0
M  V30 7 H 1.3413 -0.8102 8.6157 0
M  V30 8 H 0.7762 2.1298 9.9152 0
M  V30 9 C -8.3303 -4.8095 -1.9058 0
M  V30 10 N -7.9197 -4.5758 -3.2418 0
M  V30 11 C -7.1036 -5.5365 -3.8823 0
M  V30 12 C -8.3362 -3.3777 -3.9160 0
M  V30 13 H -8.9526 -4.0598 -1.4417 0
M  V30 14 H -6.7925 -6.4254 -3.3872 0
M  V30 15 H -8.0364 -3.1816 -4.9278 0
M  V30 16 C 8.4317 -4.8680 -1.5746 0
M  V30 17 Si 8.4159 -4.8626 -3.4074 0
M  V30 18 C 6.9260 -5.7129 -4.0679 0
M  V30 19 C 8.4125 -3.1427 -4.0617 0
M  V30 20 H 7.5509 -4.6959 -0.9689 0
M  V30 21 H 9.6390 -5.5462 -3.8842 0
M  V30 22 H 5.9857 -5.7940 -3.5363 0
M  V30 23 H 8.3556 -2.9913 -5.1328 0
M  V30 24 C 0.0000 9.7361 -1.5746 0
M  V30 25 Si 0.0032 9.7197 -3.4074 0
M  V30 26 C 1.4845 8.8546 -4.0679 0
M  V30 27 C -1.4845 8.8568 -4.0617 0
M  V30 28 H 0.2913 8.8872 -0.9689 0
M  V30 29 H -0.0164 11.1207 -3.8842 0
M  V30 30 H 2.0249 8.0808 -3.5363 0
M  V30 31 H -1.5873 8.7318 -5.1328 0
M  V30 32 N -3.6949 -2.1332 5.6614 0
M  V30 33 C -4.9833 -2.7780 5.7296 0
M  V30 34 C -5.7093 -2.7827 4.4212 0
M  V30 35 C -4.9845 -3.4856 3.3221 0
M  V30 36 N -5.8531 -3.3793 2.1370 0
M  V30 37 H -4.7982 -3.8374 6.0202 0
M  V30 38 H -5.6467 -2.2822 6.4750 0
M  V30 39 H -6.6759 -3.3081 4.5781 0
M  V30 40 H -5.9568 -1.7642 4.0772 0
M  V30 41 H -4.0059 -3.0461 3.0754 0
M  V30 42 H -4.8212 -4.5614 3.5117 0
M  V30 43 N 3.7491 -2.1664 5.8270 0
M  V30 44 C 4.9515 -2.9600 5.8952 0
M  V30 45 C 5.3185 -3.5864 4.5867 0
M  V30 46 C 5.5651 -2.6071 3.4878 0
M  V30 47 N 5.9073 -3.4125 2.3026 0
M  V30 48 H 5.7765 -2.2702 6.1860 0
M  V30 49 H 4.8536 -3.7825 6.6405 0
M  V30 50 H 6.2567 -4.1610 4.7437 0
M  V30 51 H 4.5601 -4.3098 4.2426 0
M  V30 52 H 4.6953 -1.9792 3.2411 0
M  V30 53 H 6.4153 -1.9279 3.6775 0
M  V30 54 N -0.0035 4.3731 5.7644 0
M  V30 55 C -0.0278 5.8135 5.8715 0
M  V30 56 N 0.3836 6.4564 4.6406 0
M  V30 57 C -0.4845 6.0938 3.5487 0
M  V30 58 N -0.0035 6.7768 2.3651 0
M  V30 59 H 0.5825 6.2015 6.7096 0
M  V30 60 H -1.0781 6.1286 6.0850 0
M  V30 61 H 1.3738 6.3054 4.4146 0
M  V30 62 H -1.5328 6.3884 3.8035 0
M  V30 63 H -0.4618 5.0031 3.4400 0
M  V30 64 N -2.5770 -5.6247 -3.9751 0
M  V30 65 C -1.7353 -6.5440 -4.7469 0
M  V30 66 Si -0.0481 -5.8588 -5.0445 0
M  V30 67 C 1.1096 -6.1837 -3.5987 0
M  V30 68 N 2.3994 -5.6247 -3.9751 0
M  V30 69 H -1.7438 -7.5483 -4.2922 0
M  V30 70 H -2.2333 -6.6580 -5.7450 0
M  V30 71 H 0.5303 -6.5655 -6.2066 0
M  V30 72 H -0.1072 -4.4190 -5.2328 0
M  V30 73 H 0.7137 -5.7339 -2.6655 0
M  V30 74 H 1.2226 -7.2886 -3.4958 0
M  V30 75 N -6.1545 0.5847 -3.9888 0
M  V30 76 C -6.6284 1.8302 -4.5996 0
M  V30 77 Si -5.8310 3.3180 -3.8545 0
M  V30 78 C -4.1645 3.6927 -4.6411 0
M  V30 79 N -3.6663 4.8944 -3.9888 0
M  V30 80 H -6.5501 1.7753 -5.6979 0
M  V30 81 H -7.7256 1.8887 -4.3757 0
M  V30 82 H -6.6943 4.4843 -4.1351 0
M  V30 83 H -5.6002 3.1165 -2.4339 0
M  V30 84 H -3.4708 2.8350 -4.5267 0
M  V30 85 H -4.3417 3.9255 -5.7175 0
M  V30 86 N 6.1926 0.7010 -4.0648 0
M  V30 87 C 6.5657 1.8884 -4.8394 0
M  V30 88 Si 5.1280 3.0065 -5.1349 0
M  V30 89 C 4.8344 4.1738 -3.6901 0
M  V30 90 N 3.7044 5.0108 -4.0648 0
M  V30 91 H 7.4410 2.3840 -4.3879 0
M  V30 92 H 6.9108 1.5126 -5.8379 0
M  V30 93 H 5.4476 3.8589 -6.2992 0
M  V30 94 H 3.9101 2.2352 -5.3187 0
M  V30 95 H 4.6453 3.6075 -2.7556 0
M  V30 96 H 5.7350 4.8243 -3.5907 0
M  V30 END ATOM
M  V30 BEGIN BOND
M  V30 1 1 1 2
M  V30 2 1 2 3
M  V30 3 1 2 4
M  V30 4 1 1 5
M  V30 5 1 2 6
M  V30 6 1 3 7
M  V30 7 1 4 8
M  V30 8 1 9 10
M  V30 9 1 10 11
M  V30 10 1 10 12
M  V30 11 1 9 13
M  V30 12 1 11 14
M  V30 13 1 12 15
M  V30 14 1 16 17
M  V30 15 1 17 18
M  V30 16 1 17 19
M  V30 17 1 16 20
M  V30 18 1 17 21
M  V30 19 1 18 22
M  V30 20 1 19 23
M  V30 21 1 24 25
M  V30 22 1 25 26
M  V30 23 1 25 27
M  V30 24 1 24 28
M  V30 25 1 25 29
M  V30 26 1 26 30
M  V30 27 1 27 31
M  V30 28 1 32 33
M  V30 29 1 33 34
M  V30 30 1 34 35
M  V30 31 1 35 36
M  V30 32 1 33 37
M  V30 33 1 33 38
M  V30 34 1 34 39
M  V30 35 1 34 40
M  V30 36 1 35 41
M  V30 37 1 35 42
M  V30 38 1 43 44
M  V30 39 1 44 45
M  V30 40 1 45 46
M  V30 41 1 46 47
M  V30 42 1 44 48
M  V30 43 1 44 49
M  V30 44 1 45 50
M  V30 45 1 45 51
M  V30 46 1 46 52
M  V30 47 1 46 53
M  V30 48 1 54 55
M  V30 49 1 55 56
M  V30 50 1 56 57
M  V30 51 1 57 58
M  V30 52 1 55 59
M  V30 53 1 55 60
M  V30 54 1 56 61
M  V30 55 1 57 62
M  V30 56 1 57 63
M  V30 57 1 64 65
M  V30 58 1 65 66
M  V30 59 1 66 67
M  V30 60 1 67 68
M  V30 61 1 65 69
M  V30 62 1 65 70
M  V30 63 1 66 71
M  V30 64 1 66 72
M  V30 65 1 67 73
M  V30 66 1 67 74
M  V30 67 1 75 76
M  V30 68 1 76 77
M  V30 69 1 77 78
M  V30 70 1 78 79
M  V30 71 1 76 80
M  V30 72 1 76 81
M  V30 73 1 77 82
M  V30 74 1 77 83
M  V30 75 1 78 84
M  V30 76 1 78 85
M  V30 77 1 86 87
M  V30 78 1 87 88
M  V30 79 1 88 89
M  V30 80 1 89 90
M  V30 81 1 87 91
M  V30 82 1 87 92
M  V30 83 1 88 93
M  V30 84 1 88 94
M  V30 85 1 89 95
M  V30 86 1 89 96
M  V30 87 2 1 32
M  V30 88 2 9 36
M  V30 89 2 3 43
M  V30 90 2 16 47
M  V30 91 2 4 54
M  V30 92 2 24 58
M  V30 93 2 11 64
M  V30 94 2 18 68
M  V30 95 2 12 75
M  V30 96 2 27 79
M  V30 97 2 19 86
M  V30 98 2 26 90
M  V30 END BOND
M  V30 END CTAB
M  END

$$$$
