
     RDKit          3D

  0  0  0  0  0  0  0  0  0  0999 V3000
M  V30 BEGIN CTAB
M  V30 COUNTS 22 23 0 0 0
M  V30 BEGIN ATOM
M  V30 1 N 8.2003 2.3904 0.0000 0
M  V30 2 C 8.2539 1.2291 -0.8656 0
M  V30 3 C 9.3919 0.3063 -0.5065 0
M  V30 4 C 9.4035 -0.8691 -1.4227 0
M  V30 5 N 8.2003 -1.6553 -1.3815 0
M  V30 6 C 9.3853 -0.0636 0.9526 0
M  V30 7 N 8.2003 -0.7351 1.3815 0
M  V30 8 H 8.3680 1.6136 -1.8986 0
M  V30 9 H 7.2731 0.7167 -0.7971 0
M  V30 10 H 10.3315 0.8784 -0.6814 0
M  V30 11 H 9.5094 -0.4922 -2.4609 0
M  V30 12 H 10.2884 -1.5154 -1.2422 0
M  V30 13 H 10.3033 -0.6088 1.2503 0
M  V30 14 H 9.4358 0.9121 1.5190 0
M  V30 15 C -8.2003 1.4061 -0.0000 0
M  V30 16 C -8.6661 -0.0072 -0.0047 0
M  V30 17 C -8.2003 -0.7052 -1.2279 0
M  V30 18 C -8.2003 -0.7010 1.2279 0
M  V30 19 H -7.1515 1.6394 -0.0239 0
M  V30 20 H -9.7779 -0.0418 0.0222 0
M  V30 21 H -7.1119 -0.7565 -1.3723 0
M  V30 22 H -8.4114 -1.7371 1.4564 0
M  V30 END ATOM
M  V30 BEGIN BOND
M  V30 1 1 1 2
M  V30 2 1 2 3
M  V30 3 1 3 4
M  V30 4 1 4 5
M  V30 5 1 3 6
M  V30 6 1 6 7
M  V30 7 1 2 8
M  V30 8 1 2 9
M  V30 9 1 3 10
M  V30 10 1 4 11
M  V30 11 1 4 12
M  V30 12 1 6 13
M  V30 13 1 6 14
M  V30 14 1 15 16
M  V30 15 1 16 17
M  V30 16 1 16 18
M  V30 17 1 15 19
M  V30 18 1 16 20
M  V30 19 1 17 21
M  V30 20 1 18 22
M  V30 21 2 1 15
M  V30 22 2 7 18
M  V30 23 2 5 17
M  V30 END BOND
M  V30 END CTAB
M  END

$$$$
