
     RDKit          3D

  0  0  0  0  0  0  0  0  0  0999 V3000
M  V30 BEGIN CTAB
M  V30 COUNTS 310 320 0 0 0
M  V30 BEGIN ATOM
M  V30 1 C -14.5789 15.8080 -15.5004 0
M  V30 2 C -14.6408 14.6101 -14.6316 0
M  V30 3 C -14.3241 15.0668 -13.2273 0
M  V30 4 C -13.6182 13.6520 -15.1112 0
M  V30 5 C -15.9807 13.9751 -14.6630 0
M  V30 6 H -14.7643 15.7810 -16.5705 0
M  V30 7 H -13.4134 15.5306 -12.9361 0
M  V30 8 H -13.4515 12.6788 -14.6430 0
M  V30 9 H -16.8867 14.4735 -14.3679 0
M  V30 10 C -15.8080 -14.5789 -15.5004 0
M  V30 11 C -14.6101 -14.6408 -14.6316 0
M  V30 12 C -15.0668 -14.3241 -13.2273 0
M  V30 13 C -13.6520 -13.6182 -15.1112 0
M  V30 14 C -13.9751 -15.9807 -14.6630 0
M  V30 15 H -15.7810 -14.7643 -16.5705 0
M  V30 16 H -15.5306 -13.4134 -12.9361 0
M  V30 17 H -12.6788 -13.4515 -14.6430 0
M  V30 18 H -14.4735 -16.8867 -14.3679 0
M  V30 19 C 14.5789 15.8080 -15.5004 0
M  V30 20 C 14.6437 14.6246 -14.6122 0
M  V30 21 C 14.0096 13.4761 -15.3605 0
M  V30 22 C 13.8723 14.9376 -13.3871 0
M  V30 23 C 16.0410 14.2801 -14.2539 0
M  V30 24 H 14.9629 16.7857 -15.2232 0
M  V30 25 H 13.0050 13.4646 -15.7065 0
M  V30 26 H 13.7584 14.2311 -12.5613 0
M  V30 27 H 16.7975 14.0221 -14.9733 0
M  V30 28 C 14.5789 -15.8080 -15.5004 0
M  V30 29 C 14.6408 -14.6101 -14.6316 0
M  V30 30 C 14.3241 -15.0668 -13.2273 0
M  V30 31 C 13.6182 -13.6520 -15.1112 0
M  V30 32 C 15.9807 -13.9751 -14.6630 0
M  V30 33 H 14.7643 -15.7810 -16.5705 0
M  V30 34 H 13.4134 -15.5306 -12.9361 0
M  V30 35 H 13.4515 -12.6788 -14.6430 0
M  V30 36 H 16.8867 -14.4735 -14.3679 0
M  V30 37 C -14.5789 15.8080 15.5004 0
M  V30 38 C -14.6437 14.6246 14.6122 0
M  V30 39 C -14.0096 13.4761 15.3605 0
M  V30 40 C -13.8723 14.9376 13.3871 0
M  V30 41 C -16.0410 14.2801 14.2539 0
M  V30 42 H -14.9629 16.7857 15.2232 0
M  V30 43 H -13.0050 13.4646 15.7065 0
M  V30 44 H -13.7584 14.2311 12.5613 0
M  V30 45 H -16.7975 14.0221 14.9733 0
M  V30 46 C -15.8080 -14.5789 15.5004 0
M  V30 47 C -14.6246 -14.6437 14.6122 0
M  V30 48 C -13.4761 -14.0096 15.3605 0
M  V30 49 C -14.9376 -13.8723 13.3871 0
M  V30 50 C -14.2801 -16.0410 14.2539 0
M  V30 51 H -16.7857 -14.9629 15.2232 0
M  V30 52 H -13.4646 -13.0050 15.7065 0
M  V30 53 H -14.2311 -13.7584 12.5613 0
M  V30 54 H -14.0221 -16.7975 14.9733 0
M  V30 55 C 14.5789 15.8080 15.5004 0
M  V30 56 C 14.6408 14.6101 14.6316 0
M  V30 57 C 14.3241 15.0668 13.2273 0
M  V30 58 C 13.6182 13.6520 15.1112 0
M  V30 59 C 15.9807 13.9751 14.6630 0
M  V30 60 H 14.7643 15.7810 16.5705 0
M  V30 61 H 13.4134 15.5306 12.9361 0
M  V30 62 H 13.4515 12.6788 14.6430 0
M  V30 63 H 16.8867 14.4735 14.3679 0
M  V30 64 C 14.5789 -15.8080 15.5004 0
M  V30 65 C 14.6437 -14.6246 14.6122 0
M  V30 66 C 14.0096 -13.4761 15.3605 0
M  V30 67 C 13.8723 -14.9376 13.3871 0
M  V30 68 C 16.0410 -14.2801 14.2539 0
M  V30 69 H 14.9629 -16.7857 15.2232 0
M  V30 70 H 13.0050 -13.4646 15.7065 0
M  V30 71 H 13.7584 -14.2311 12.5613 0
M  V30 72 H 16.7975 -14.0221 14.9733 0
M  V30 73 C -0.6527 0.6527 23.0845 0
M  V30 74 C 0.0046 -0.0218 21.9415 0
M  V30 75 C 0.8918 1.0029 21.2753 0
M  V30 76 C -1.0575 -0.4738 21.0133 0
M  V30 77 C 0.8184 -1.1817 22.3796 0
M  V30 78 H -1.3522 0.1555 23.7506 0
M  V30 79 H 0.5462 1.9145 20.8526 0
M  V30 80 H -0.8448 -1.0041 20.0818 0
M  V30 81 H 1.6465 -1.1088 23.0618 0
M  V30 82 C -0.6527 0.6527 -23.0845 0
M  V30 83 C 0.0218 -0.0046 -21.9415 0
M  V30 84 C -1.0029 -0.8918 -21.2753 0
M  V30 85 C 0.4738 1.0575 -21.0133 0
M  V30 86 C 1.1817 -0.8184 -22.3796 0
M  V30 87 H -0.1555 1.3522 -23.7506 0
M  V30 88 H -1.9145 -0.5462 -20.8526 0
M  V30 89 H 1.0041 0.8448 -20.0818 0
M  V30 90 H 1.1088 -1.6465 -23.0618 0
M  V30 91 N -2.1583 15.8080 -15.5004 0
M  V30 92 C -1.3836 16.7346 -16.2889 0
M  V30 93 C 0.0491 16.8145 -15.8644 0
M  V30 94 C 0.7869 15.5204 -15.9557 0
M  V30 95 N 2.1583 15.8080 -15.5004 0
M  V30 96 H -1.4076 16.3627 -17.3387 0
M  V30 97 H -1.8037 17.7652 -16.2334 0
M  V30 98 H 0.5559 17.5402 -16.5364 0
M  V30 99 H 0.1597 17.2049 -14.8386 0
M  V30 100 H 0.3722 14.7205 -15.3234 0
M  V30 101 H 0.8610 15.1202 -16.9825 0
M  V30 102 N -15.8943 1.8563 -15.0817 0
M  V30 103 C -16.7157 1.0817 -15.9793 0
M  V30 104 C -16.2944 -0.3510 -16.0745 0
M  V30 105 C -16.3389 -1.0889 -14.7779 0
M  V30 106 N -15.8943 -2.4602 -15.0817 0
M  V30 107 H -17.7514 1.1057 -15.5698 0
M  V30 108 H -16.6974 1.5018 -17.0112 0
M  V30 109 H -16.9920 -0.8578 -16.7754 0
M  V30 110 H -15.2833 -0.4616 -16.5016 0
M  V30 111 H -15.6783 -0.6741 -14.0013 0
M  V30 112 H -17.3507 -1.1630 -14.3410 0
M  V30 113 N -1.8563 -15.8943 -15.0817 0
M  V30 114 C -1.0817 -16.7157 -15.9793 0
M  V30 115 C 0.3510 -16.2944 -16.0745 0
M  V30 116 C 1.0889 -16.3389 -14.7779 0
M  V30 117 N 2.4602 -15.8943 -15.0817 0
M  V30 118 H -1.1057 -17.7514 -15.5698 0
M  V30 119 H -1.5018 -16.6974 -17.0112 0
M  V30 120 H 0.8578 -16.9920 -16.7754 0
M  V30 121 H 0.4616 -15.2833 -16.5016 0
M  V30 122 H 0.6741 -15.6783 -14.0013 0
M  V30 123 H 1.1630 -17.3507 -14.3410 0
M  V30 124 N 16.0108 2.3108 -14.4584 0
M  V30 125 C 16.9691 1.5361 -15.2082 0
M  V30 126 C 17.0315 0.1034 -14.7808 0
M  V30 127 C 15.7422 -0.6344 -14.9251 0
M  V30 128 N 16.0108 -2.0057 -14.4584 0
M  V30 129 H 16.6406 1.5602 -16.2724 0
M  V30 130 H 17.9965 1.9562 -15.1105 0
M  V30 131 H 17.7841 -0.4033 -15.4224 0
M  V30 132 H 17.3794 -0.0072 -13.7398 0
M  V30 133 H 14.9170 -0.2197 -14.3263 0
M  V30 134 H 15.3845 -0.7085 -15.9675 0
M  V30 135 N -2.1583 15.8080 15.5004 0
M  V30 136 C -1.3836 16.6145 16.4114 0
M  V30 137 C 0.0491 16.1917 16.4996 0
M  V30 138 C 0.7869 16.2575 15.2040 0
M  V30 139 N 2.1583 15.8080 15.5004 0
M  V30 140 H -1.4076 17.6568 16.0189 0
M  V30 141 H -1.8037 16.5793 17.4429 0
M  V30 142 H 0.5559 16.8777 17.2119 0
M  V30 143 H 0.1597 15.1738 16.9101 0
M  V30 144 H 0.3722 15.6097 14.4166 0
M  V30 145 H 0.8610 17.2763 14.7837 0
M  V30 146 N -15.9245 2.0089 14.8772 0
M  V30 147 C -16.8699 1.2342 15.6430 0
M  V30 148 C -16.9395 -0.1985 15.2167 0
M  V30 149 C -15.6480 -0.9363 15.3392 0
M  V30 150 N -15.9245 -2.3076 14.8772 0
M  V30 151 H -16.5234 1.2583 16.7015 0
M  V30 152 H -17.8988 1.6543 15.5627 0
M  V30 153 H -17.6812 -0.7052 15.8709 0
M  V30 154 H -17.3051 -0.3091 14.1818 0
M  V30 155 H -14.8330 -0.5216 14.7265 0
M  V30 156 H -15.2728 -1.0104 16.3754 0
M  V30 157 N -2.0089 -15.9245 14.8772 0
M  V30 158 C -1.2342 -16.8699 15.6430 0
M  V30 159 C 0.1985 -16.9395 15.2167 0
M  V30 160 C 0.9363 -15.6480 15.3392 0
M  V30 161 N 2.3076 -15.9245 14.8772 0
M  V30 162 H -1.2583 -16.5234 16.7015 0
M  V30 163 H -1.6543 -17.8988 15.5627 0
M  V30 164 H 0.7052 -17.6812 15.8709 0
M  V30 165 H 0.3091 -17.3051 14.1818 0
M  V30 166 H 0.5216 -14.8330 14.7265 0
M  V30 167 H 1.0104 -15.2728 16.3754 0
M  V30 168 N 16.0108 2.0057 14.4584 0
M  V30 169 C 16.8541 1.2311 15.3355 0
M  V30 170 C 16.4353 -0.2016 15.4410 0
M  V30 171 C 16.4478 -0.9395 14.1438 0
M  V30 172 N 16.0108 -2.3108 14.4584 0
M  V30 173 H 17.8794 1.2551 14.9005 0
M  V30 174 H 16.8613 1.6512 16.3676 0
M  V30 175 H 17.1500 -0.7084 16.1246 0
M  V30 176 H 15.4351 -0.3122 15.8930 0
M  V30 177 H 15.7682 -0.5247 13.3837 0
M  V30 178 H 17.4485 -1.0136 13.6820 0
M  V30 179 N -14.0982 15.0022 -2.0784 0
M  V30 180 C -14.9919 15.8279 -1.3037 0
M  V30 181 C -15.0890 15.4071 0.1290 0
M  V30 182 C -13.7923 15.4454 0.8668 0
M  V30 183 N -14.0982 15.0022 2.2381 0
M  V30 184 H -14.5773 16.8616 -1.3278 0
M  V30 185 H -16.0238 15.8146 -1.7238 0
M  V30 186 H -15.7866 16.1081 0.6357 0
M  V30 187 H -15.5211 14.3981 0.2396 0
M  V30 188 H -13.0188 14.7810 0.4521 0
M  V30 189 H -13.3505 16.4550 0.9409 0
M  V30 190 N -15.0022 -14.0982 -2.0784 0
M  V30 191 C -15.8279 -14.9919 -1.3037 0
M  V30 192 C -15.4071 -15.0890 0.1290 0
M  V30 193 C -15.4454 -13.7923 0.8668 0
M  V30 194 N -15.0022 -14.0982 2.2381 0
M  V30 195 H -16.8616 -14.5773 -1.3278 0
M  V30 196 H -15.8146 -16.0238 -1.7238 0
M  V30 197 H -16.1081 -15.7866 0.6357 0
M  V30 198 H -14.3981 -15.5211 0.2396 0
M  V30 199 H -14.7810 -13.0188 0.4521 0
M  V30 200 H -16.4550 -13.3505 0.9409 0
M  V30 201 N 14.0982 15.0022 -2.2381 0
M  V30 202 C 14.8668 15.9454 -1.4635 0
M  V30 203 C 14.4408 16.0163 -0.0308 0
M  V30 204 C 14.5595 14.7244 0.7071 0
M  V30 205 N 14.0982 15.0022 2.0784 0
M  V30 206 H 15.9243 15.5958 -1.4875 0
M  V30 207 H 14.7895 16.9746 -1.8836 0
M  V30 208 H 15.0971 16.7560 0.4760 0
M  V30 209 H 13.4069 16.3848 0.0798 0
M  V30 210 H 13.9444 13.9112 0.2923 0
M  V30 211 H 15.5946 14.3461 0.7812 0
M  V30 212 N 14.0982 -15.0022 -2.0784 0
M  V30 213 C 14.9919 -15.8279 -1.3037 0
M  V30 214 C 15.0890 -15.4071 0.1290 0
M  V30 215 C 13.7923 -15.4454 0.8668 0
M  V30 216 N 14.0982 -15.0022 2.2381 0
M  V30 217 H 14.5773 -16.8616 -1.3278 0
M  V30 218 H 16.0238 -15.8146 -1.7238 0
M  V30 219 H 15.7866 -16.1081 0.6357 0
M  V30 220 H 15.5211 -14.3981 0.2396 0
M  V30 221 H 13.0188 -14.7810 0.4521 0
M  V30 222 H 13.3505 -16.4550 0.9409 0
M  V30 223 N -5.8923 5.6256 19.9419 0
M  V30 224 C -6.6418 6.4814 20.8286 0
M  V30 225 C -7.2858 7.6360 20.1276 0
M  V30 226 C -8.2543 7.2418 19.0628 0
M  V30 227 N -8.7700 8.5032 18.5031 0
M  V30 228 H -7.4514 5.8568 21.2708 0
M  V30 229 H -5.9938 6.9010 21.6321 0
M  V30 230 H -7.8428 8.2207 20.8909 0
M  V30 231 H -6.5441 8.3221 19.6848 0
M  V30 232 H -7.8092 6.6556 18.2443 0
M  V30 233 H -9.1229 6.6720 19.4381 0
M  V30 234 N -5.8280 -5.8029 18.9063 0
M  V30 235 C -6.6918 -6.5440 19.7923 0
M  V30 236 C -7.8440 -7.1887 19.0880 0
M  V30 237 C -7.4461 -8.1653 18.0319 0
M  V30 238 N -8.7056 -8.6806 17.4675 0
M  V30 239 H -6.0728 -7.3527 20.2437 0
M  V30 240 H -7.1145 -5.8894 20.5888 0
M  V30 241 H -8.4355 -7.7390 19.8511 0
M  V30 242 H -8.5249 -6.4477 18.6360 0
M  V30 243 H -6.8533 -7.7274 17.2144 0
M  V30 244 H -6.8815 -9.0333 18.4164 0
M  V30 245 N 5.8161 5.8886 18.9127 0
M  V30 246 C 6.6772 6.6326 19.7989 0
M  V30 247 C 7.8302 7.2771 19.0958 0
M  V30 248 C 7.4336 8.2509 18.0366 0
M  V30 249 N 8.6938 8.7663 17.4738 0
M  V30 250 H 6.0562 7.4416 20.2471 0
M  V30 251 H 7.0988 5.9803 20.5979 0
M  V30 252 H 8.4194 7.8297 19.8590 0
M  V30 253 H 8.5129 6.5359 18.6470 0
M  V30 254 H 6.8431 7.8104 17.2188 0
M  V30 255 H 6.8672 9.1191 18.4179 0
M  V30 256 N 5.9752 -5.8901 19.5895 0
M  V30 257 C 6.7195 -6.7509 20.4757 0
M  V30 258 C 7.3639 -7.9040 19.7727 0
M  V30 259 C 8.3374 -7.5075 18.7132 0
M  V30 260 N 8.8528 -8.7678 18.1506 0
M  V30 261 H 7.5285 -6.1297 20.9236 0
M  V30 262 H 6.0674 -7.1724 21.2749 0
M  V30 263 H 7.9168 -8.4929 20.5359 0
M  V30 264 H 6.6227 -8.5869 19.3243 0
M  V30 265 H 7.8967 -6.9172 17.8954 0
M  V30 266 H 9.2057 -6.9409 19.0942 0
M  V30 267 N -5.6966 5.7135 -19.8173 0
M  V30 268 C -6.5593 6.4558 -20.7033 0
M  V30 269 C -7.7118 7.1004 -19.9996 0
M  V30 270 C -7.3145 8.0759 -18.9422 0
M  V30 271 N -8.5743 8.5912 -18.3784 0
M  V30 272 H -5.9394 7.2646 -21.1534 0
M  V30 273 H -6.9815 5.8022 -21.5009 0
M  V30 274 H -8.3023 7.6517 -20.7627 0
M  V30 275 H -8.3935 6.3594 -19.5490 0
M  V30 276 H -6.7226 7.6368 -18.1245 0
M  V30 277 H -6.7491 8.9440 -19.3253 0
M  V30 278 N -5.8886 -5.8161 -18.9127 0
M  V30 279 C -6.6326 -6.6772 -19.7989 0
M  V30 280 C -7.2771 -7.8302 -19.0958 0
M  V30 281 C -8.2509 -7.4336 -18.0366 0
M  V30 282 N -8.7663 -8.6938 -17.4738 0
M  V30 283 H -7.4416 -6.0562 -20.2471 0
M  V30 284 H -5.9803 -7.0988 -20.5979 0
M  V30 285 H -7.8297 -8.4194 -19.8590 0
M  V30 286 H -6.5359 -8.5129 -18.6470 0
M  V30 287 H -7.8104 -6.8431 -17.2188 0
M  V30 288 H -9.1191 -6.8672 -18.4179 0
M  V30 289 N 5.8029 5.8280 -18.9063 0
M  V30 290 C 6.5440 6.6918 -19.7923 0
M  V30 291 C 7.1887 7.8440 -19.0880 0
M  V30 292 C 8.1653 7.4461 -18.0319 0
M  V30 293 N 8.6806 8.7056 -17.4675 0
M  V30 294 H 7.3527 6.0728 -20.2437 0
M  V30 295 H 5.8894 7.1145 -20.5888 0
M  V30 296 H 7.7390 8.4355 -19.8511 0
M  V30 297 H 6.4477 8.5249 -18.6360 0
M  V30 298 H 7.7274 6.8533 -17.2144 0
M  V30 299 H 9.0333 6.8815 -18.4164 0
M  V30 300 N 5.9611 -5.7963 -19.4648 0
M  V30 301 C 6.8289 -6.5333 -20.3504 0
M  V30 302 C 7.9799 -7.1785 -19.6446 0
M  V30 303 C 7.5802 -8.1590 -18.5927 0
M  V30 304 N 8.8388 -8.6740 -18.0260 0
M  V30 305 H 6.2125 -7.3416 -20.8062 0
M  V30 306 H 7.2530 -5.8756 -21.1436 0
M  V30 307 H 8.5745 -7.7254 -20.4075 0
M  V30 308 H 8.6582 -6.4379 -19.1882 0
M  V30 309 H 6.9841 -7.7245 -17.7757 0
M  V30 310 H 7.0182 -9.0267 -18.9817 0
M  V30 END ATOM
M  V30 BEGIN BOND
M  V30 1 1 1 2
M  V30 2 1 2 3
M  V30 3 1 2 4
M  V30 4 1 2 5
M  V30 5 1 1 6
M  V30 6 1 3 7
M  V30 7 1 4 8
M  V30 8 1 5 9
M  V30 9 1 10 11
M  V30 10 1 11 12
M  V30 11 1 11 13
M  V30 12 1 11 14
M  V30 13 1 10 15
M  V30 14 1 12 16
M  V30 15 1 13 17
M  V30 16 1 14 18
M  V30 17 1 19 20
M  V30 18 1 20 21
M  V30 19 1 20 22
M  V30 20 1 20 23
M  V30 21 1 19 24
M  V30 22 1 21 25
M  V30 23 1 22 26
M  V30 24 1 23 27
M  V30 25 1 28 29
M  V30 26 1 29 30
M  V30 27 1 29 31
M  V30 28 1 29 32
M  V30 29 1 28 33
M  V30 30 1 30 34
M  V30 31 1 31 35
M  V30 32 1 32 36
M  V30 33 1 37 38
M  V30 34 1 38 39
M  V30 35 1 38 40
M  V30 36 1 38 41
M  V30 37 1 37 42
M  V30 38 1 39 43
M  V30 39 1 40 44
M  V30 40 1 41 45
M  V30 41 1 46 47
M  V30 42 1 47 48
M  V30 43 1 47 49
M  V30 44 1 47 50
M  V30 45 1 46 51
M  V30 46 1 48 52
M  V30 47 1 49 53
M  V30 48 1 50 54
M  V30 49 1 55 56
M  V30 50 1 56 57
M  V30 51 1 56 58
M  V30 52 1 56 59
M  V30 53 1 55 60
M  V30 54 1 57 61
M  V30 55 1 58 62
M  V30 56 1 59 63
M  V30 57 1 64 65
M  V30 58 1 65 66
M  V30 59 1 65 67
M  V30 60 1 65 68
M  V30 61 1 64 69
M  V30 62 1 66 70
M  V30 63 1 67 71
M  V30 64 1 68 72
M  V30 65 1 73 74
M  V30 66 1 74 75
M  V30 67 1 74 76
M  V30 68 1 74 77
M  V30 69 1 73 78
M  V30 70 1 75 79
M  V30 71 1 76 80
M  V30 72 1 77 81
M  V30 73 1 82 83
M  V30 74 1 83 84
M  V30 75 1 83 85
M  V30 76 1 83 86
M  V30 77 1 82 87
M  V30 78 1 84 88
M  V30 79 1 85 89
M  V30 80 1 86 90
M  V30 81 1 91 92
M  V30 82 1 92 93
M  V30 83 1 93 94
M  V30 84 1 94 95
M  V30 85 1 92 96
M  V30 86 1 92 97
M  V30 87 1 93 98
M  V30 88 1 93 99
M  V30 89 1 94 100
M  V30 90 1 94 101
M  V30 91 1 102 103
M  V30 92 1 103 104
M  V30 93 1 104 105
M  V30 94 1 105 106
M  V30 95 1 103 107
M  V30 96 1 103 108
M  V30 97 1 104 109
M  V30 98 1 104 110
M  V30 99 1 105 111
M  V30 100 1 105 112
M  V30 101 1 113 114
M  V30 102 1 114 115
M  V30 103 1 115 116
M  V30 104 1 116 117
M  V30 105 1 114 118
M  V30 106 1 114 119
M  V30 107 1 115 120
M  V30 108 1 115 121
M  V30 109 1 116 122
M  V30 110 1 116 123
M  V30 111 1 124 125
M  V30 112 1 125 126
M  V30 113 1 126 127
M  V30 114 1 127 128
M  V30 115 1 125 129
M  V30 116 1 125 130
M  V30 117 1 126 131
M  V30 118 1 126 132
M  V30 119 1 127 133
M  V30 120 1 127 134
M  V30 121 1 135 136
M  V30 122 1 136 137
M  V30 123 1 137 138
M  V30 124 1 138 139
M  V30 125 1 136 140
M  V30 126 1 136 141
M  V30 127 1 137 142
M  V30 128 1 137 143
M  V30 129 1 138 144
M  V30 130 1 138 145
M  V30 131 1 146 147
M  V30 132 1 147 148
M  V30 133 1 148 149
M  V30 134 1 149 150
M  V30 135 1 147 151
M  V30 136 1 147 152
M  V30 137 1 148 153
M  V30 138 1 148 154
M  V30 139 1 149 155
M  V30 140 1 149 156
M  V30 141 1 157 158
M  V30 142 1 158 159
M  V30 143 1 159 160
M  V30 144 1 160 161
M  V30 145 1 158 162
M  V30 146 1 158 163
M  V30 147 1 159 164
M  V30 148 1 159 165
M  V30 149 1 160 166
M  V30 150 1 160 167
M  V30 151 1 168 169
M  V30 152 1 169 170
M  V30 153 1 170 171
M  V30 154 1 171 172
M  V30 155 1 169 173
M  V30 156 1 169 174
M  V30 157 1 170 175
M  V30 158 1 170 176
M  V30 159 1 171 177
M  V30 160 1 171 178
M  V30 161 1 179 180
M  V30 162 1 180 181
M  V30 163 1 181 182
M  V30 164 1 182 183
M  V30 165 1 180 184
M  V30 166 1 180 185
M  V30 167 1 181 186
M  V30 168 1 181 187
M  V30 169 1 182 188
M  V30 170 1 182 189
M  V30 171 1 190 191
M  V30 172 1 191 192
M  V30 173 1 192 193
M  V30 174 1 193 194
M  V30 175 1 191 195
M  V30 176 1 191 196
M  V30 177 1 192 197
M  V30 178 1 192 198
M  V30 179 1 193 199
M  V30 180 1 193 200
M  V30 181 1 201 202
M  V30 182 1 202 203
M  V30 183 1 203 204
M  V30 184 1 204 205
M  V30 185 1 202 206
M  V30 186 1 202 207
M  V30 187 1 203 208
M  V30 188 1 203 209
M  V30 189 1 204 210
M  V30 190 1 204 211
M  V30 191 1 212 213
M  V30 192 1 213 214
M  V30 193 1 214 215
M  V30 194 1 215 216
M  V30 195 1 213 217
M  V30 196 1 213 218
M  V30 197 1 214 219
M  V30 198 1 214 220
M  V30 199 1 215 221
M  V30 200 1 215 222
M  V30 201 1 223 224
M  V30 202 1 224 225
M  V30 203 1 225 226
M  V30 204 1 226 227
M  V30 205 1 224 228
M  V30 206 1 224 229
M  V30 207 1 225 230
M  V30 208 1 225 231
M  V30 209 1 226 232
M  V30 210 1 226 233
M  V30 211 1 234 235
M  V30 212 1 235 236
M  V30 213 1 236 237
M  V30 214 1 237 238
M  V30 215 1 235 239
M  V30 216 1 235 240
M  V30 217 1 236 241
M  V30 218 1 236 242
M  V30 219 1 237 243
M  V30 220 1 237 244
M  V30 221 1 245 246
M  V30 222 1 246 247
M  V30 223 1 247 248
M  V30 224 1 248 249
M  V30 225 1 246 250
M  V30 226 1 246 251
M  V30 227 1 247 252
M  V30 228 1 247 253
M  V30 229 1 248 254
M  V30 230 1 248 255
M  V30 231 1 256 257
M  V30 232 1 257 258
M  V30 233 1 258 259
M  V30 234 1 259 260
M  V30 235 1 257 261
M  V30 236 1 257 262
M  V30 237 1 258 263
M  V30 238 1 258 264
M  V30 239 1 259 265
M  V30 240 1 259 266
M  V30 241 1 267 268
M  V30 242 1 268 269
M  V30 243 1 269 270
M  V30 244 1 270 271
M  V30 245 1 268 272
M  V30 246 1 268 273
M  V30 247 1 269 274
M  V30 248 1 269 275
M  V30 249 1 270 276
M  V30 250 1 270 277
M  V30 251 1 278 279
M  V30 252 1 279 280
M  V30 253 1 280 281
M  V30 254 1 281 282
M  V30 255 1 279 283
M  V30 256 1 279 284
M  V30 257 1 280 285
M  V30 258 1 280 286
M  V30 259 1 281 287
M  V30 260 1 281 288
M  V30 261 1 289 290
M  V30 262 1 290 291
M  V30 263 1 291 292
M  V30 264 1 292 293
M  V30 265 1 290 294
M  V30 266 1 290 295
M  V30 267 1 291 296
M  V30 268 1 291 297
M  V30 269 1 292 298
M  V30 270 1 292 299
M  V30 271 1 300 301
M  V30 272 1 301 302
M  V30 273 1 302 303
M  V30 274 1 303 304
M  V30 275 1 301 305
M  V30 276 1 301 306
M  V30 277 1 302 307
M  V30 278 1 302 308
M  V30 279 1 303 309
M  V30 280 1 303 310
M  V30 281 2 1 91
M  V30 282 2 19 95
M  V30 283 2 5 102
M  V30 284 2 10 106
M  V30 285 2 14 113
M  V30 286 2 28 117
M  V30 287 2 23 124
M  V30 288 2 32 128
M  V30 289 2 37 135
M  V30 290 2 55 139
M  V30 291 2 41 146
M  V30 292 2 46 150
M  V30 293 2 50 157
M  V30 294 2 64 161
M  V30 295 2 59 168
M  V30 296 2 68 172
M  V30 297 2 3 179
M  V30 298 2 40 183
M  V30 299 2 12 190
M  V30 300 2 49 194
M  V30 301 2 22 201
M  V30 302 2 57 205
M  V30 303 2 30 212
M  V30 304 2 67 216
M  V30 305 2 73 223
M  V30 306 2 39 227
M  V30 307 2 76 234
M  V30 308 2 48 238
M  V30 309 2 75 245
M  V30 310 2 58 249
M  V30 311 2 77 256
M  V30 312 2 66 260
M  V30 313 2 82 267
M  V30 314 2 4 271
M  V30 315 2 84 278
M  V30 316 2 13 282
M  V30 317 2 85 289
M  V30 318 2 21 293
M  V30 319 2 86 300
M  V30 320 2 31 304
M  V30 END BOND
M  V30 END CTAB
M  END

$$$$
