
     RDKit          3D

  0  0  0  0  0  0  0  0  0  0999 V3000
M  V30 BEGIN CTAB
M  V30 COUNTS 490 500 0 0 0
M  V30 BEGIN ATOM
M  V30 1 C 16.9941 -1.2177 7.2438 0
M  V30 2 C 17.6828 0.0039 6.7460 0
M  V30 3 C 17.7502 -0.0033 5.2642 0
M  V30 4 C 16.9905 1.2210 7.2530 0
M  V30 5 H 15.9801 -1.4317 6.9592 0
M  V30 6 H 18.7193 0.0473 7.1484 0
M  V30 7 H 16.7872 -0.0310 4.7350 0
M  V30 8 H 17.3020 2.2326 7.0291 0
M  V30 9 C -16.9941 -1.2177 7.2438 0
M  V30 10 C -17.6799 0.0086 6.7536 0
M  V30 11 C -16.9913 1.2247 7.2510 0
M  V30 12 C -17.7494 -0.0069 5.2662 0
M  V30 13 H -15.9653 -1.4078 6.9979 0
M  V30 14 H -18.7330 0.0251 7.1124 0
M  V30 15 H -15.9391 1.3413 6.9555 0
M  V30 16 H -18.2021 0.7762 4.6727 0
M  V30 17 C -17.7467 -0.0000 -5.2734 0
M  V30 18 C -17.6775 0.0047 -6.7599 0
M  V30 19 C -16.9933 1.2279 -7.2457 0
M  V30 20 C -16.9948 -1.2279 -7.2418 0
M  V30 21 H -16.8502 0.0239 -4.6812 0
M  V30 22 H -18.7038 -0.0222 -7.1889 0
M  V30 23 H -15.9582 1.3723 -6.9053 0
M  V30 24 H -16.8223 -1.4564 -8.2851 0
M  V30 25 C 17.7467 -0.0000 -5.2734 0
M  V30 26 C 17.6775 -0.0047 -6.7599 0
M  V30 27 C 16.9933 -1.2279 -7.2457 0
M  V30 28 C 16.9948 1.2279 -7.2418 0
M  V30 29 H 16.8502 -0.0239 -4.6812 0
M  V30 30 H 18.7038 0.0222 -7.1889 0
M  V30 31 H 15.9582 -1.3723 -6.9053 0
M  V30 32 H 16.8223 1.4564 -8.2851 0
M  V30 33 C 7.2438 16.9941 1.2177 0
M  V30 34 C 6.7536 17.6799 -0.0086 0
M  V30 35 C 7.2510 16.9913 -1.2247 0
M  V30 36 C 5.2662 17.7494 0.0069 0
M  V30 37 H 6.9979 15.9653 1.4078 0
M  V30 38 H 7.1124 18.7330 -0.0251 0
M  V30 39 H 6.9555 15.9391 -1.3413 0
M  V30 40 H 4.6727 18.2021 -0.7762 0
M  V30 41 C 5.2734 -17.7467 -0.0000 0
M  V30 42 C 6.7599 -17.6775 -0.0047 0
M  V30 43 C 7.2457 -16.9933 -1.2279 0
M  V30 44 C 7.2418 -16.9948 1.2279 0
M  V30 45 H 4.6812 -16.8502 -0.0239 0
M  V30 46 H 7.1889 -18.7038 0.0222 0
M  V30 47 H 6.9053 -15.9582 -1.3723 0
M  V30 48 H 8.2851 -16.8223 1.4564 0
M  V30 49 C -5.2734 -17.7467 0.0000 0
M  V30 50 C -6.7599 -17.6775 0.0047 0
M  V30 51 C -7.2457 -16.9933 1.2279 0
M  V30 52 C -7.2418 -16.9948 -1.2279 0
M  V30 53 H -4.6812 -16.8502 0.0239 0
M  V30 54 H -7.1889 -18.7038 -0.0222 0
M  V30 55 H -6.9053 -15.9582 1.3723 0
M  V30 56 H -8.2851 -16.8223 -1.4564 0
M  V30 57 C -5.2734 17.7467 -0.0000 0
M  V30 58 C -6.7599 17.6775 -0.0047 0
M  V30 59 C -7.2457 16.9933 -1.2279 0
M  V30 60 C -7.2418 16.9948 1.2279 0
M  V30 61 H -4.6812 16.8502 -0.0239 0
M  V30 62 H -7.1889 18.7038 0.0222 0
M  V30 63 H -6.9053 15.9582 -1.3723 0
M  V30 64 H -8.2851 16.8223 1.4564 0
M  V30 65 C 0.0000 5.2734 17.7467 0
M  V30 66 C 0.0047 6.7599 17.6775 0
M  V30 67 C 1.2279 7.2457 16.9933 0
M  V30 68 C -1.2279 7.2418 16.9948 0
M  V30 69 H 0.0239 4.6812 16.8502 0
M  V30 70 H -0.0222 7.1889 18.7038 0
M  V30 71 H 1.3723 6.9053 15.9582 0
M  V30 72 H -1.4564 8.2851 16.8223 0
M  V30 73 C 0.0000 5.2734 -17.7467 0
M  V30 74 C -0.0047 6.7599 -17.6775 0
M  V30 75 C -1.2279 7.2457 -16.9933 0
M  V30 76 C 1.2279 7.2418 -16.9948 0
M  V30 77 H -0.0239 4.6812 -16.8502 0
M  V30 78 H 0.0222 7.1889 -18.7038 0
M  V30 79 H -1.3723 6.9053 -15.9582 0
M  V30 80 H 1.4564 8.2851 -16.8223 0
M  V30 81 C -0.0000 -5.2734 -17.7467 0
M  V30 82 C 0.0047 -6.7599 -17.6775 0
M  V30 83 C 1.2279 -7.2457 -16.9933 0
M  V30 84 C -1.2279 -7.2418 -16.9948 0
M  V30 85 H 0.0239 -4.6812 -16.8502 0
M  V30 86 H -0.0222 -7.1889 -18.7038 0
M  V30 87 H 1.3723 -6.9053 -15.9582 0
M  V30 88 H -1.4564 -8.2851 -16.8223 0
M  V30 89 C -0.0000 -5.2734 17.7467 0
M  V30 90 C -0.0047 -6.7599 17.6775 0
M  V30 91 C -1.2279 -7.2457 16.9933 0
M  V30 92 C 1.2279 -7.2418 16.9948 0
M  V30 93 H -0.0239 -4.6812 16.8502 0
M  V30 94 H 0.0222 -7.1889 18.7038 0
M  V30 95 H -1.3723 -6.9053 15.9582 0
M  V30 96 H 1.4564 -8.2851 16.8223 0
M  V30 97 C 11.7207 9.7503 10.5029 0
M  V30 98 C 10.9228 10.9339 10.9239 0
M  V30 99 C 10.5044 11.7271 9.7423 0
M  V30 100 C 9.7488 10.4965 11.7287 0
M  V30 101 H 11.2988 9.0062 9.8523 0
M  V30 102 H 11.5303 11.5846 11.5914 0
M  V30 103 H 9.8819 11.2040 9.0028 0
M  V30 104 H 9.0169 11.1730 12.1496 0
M  V30 105 C 11.7207 -9.7503 10.5029 0
M  V30 106 C 10.9199 -10.9292 10.9315 0
M  V30 107 C 9.7456 -10.4992 11.7291 0
M  V30 108 C 10.5077 -11.7244 9.7418 0
M  V30 109 H 11.2841 -8.9822 9.8910 0
M  V30 110 H 11.5441 -11.6069 11.5554 0
M  V30 111 H 9.0338 -9.8317 11.2232 0
M  V30 112 H 9.9170 -12.6293 9.7931 0
M  V30 113 C -11.7207 -9.7503 10.5029 0
M  V30 114 C -10.9228 -10.9339 10.9239 0
M  V30 115 C -10.5044 -11.7271 9.7423 0
M  V30 116 C -9.7488 -10.4965 11.7287 0
M  V30 117 H -11.2988 -9.0062 9.8523 0
M  V30 118 H -11.5303 -11.5846 11.5914 0
M  V30 119 H -9.8819 -11.2040 9.0028 0
M  V30 120 H -9.0169 -11.1730 12.1496 0
M  V30 121 C -11.7207 9.7503 10.5029 0
M  V30 122 C -10.9199 10.9292 10.9315 0
M  V30 123 C -9.7456 10.4992 11.7291 0
M  V30 124 C -10.5077 11.7244 9.7418 0
M  V30 125 H -11.2841 8.9822 9.8910 0
M  V30 126 H -11.5441 11.6069 11.5554 0
M  V30 127 H -9.0338 9.8317 11.2232 0
M  V30 128 H -9.9170 12.6293 9.7931 0
M  V30 129 C -11.7207 9.7503 -10.5029 0
M  V30 130 C -10.9228 10.9339 -10.9239 0
M  V30 131 C -10.5044 11.7271 -9.7423 0
M  V30 132 C -9.7488 10.4965 -11.7287 0
M  V30 133 H -11.2988 9.0062 -9.8523 0
M  V30 134 H -11.5303 11.5846 -11.5914 0
M  V30 135 H -9.8819 11.2040 -9.0028 0
M  V30 136 H -9.0169 11.1730 -12.1496 0
M  V30 137 C 11.7207 9.7503 -10.5029 0
M  V30 138 C 10.9199 10.9292 -10.9315 0
M  V30 139 C 9.7456 10.4992 -11.7291 0
M  V30 140 C 10.5077 11.7244 -9.7418 0
M  V30 141 H 11.2841 8.9822 -9.8910 0
M  V30 142 H 11.5441 11.6069 -11.5554 0
M  V30 143 H 9.0338 9.8317 -11.2232 0
M  V30 144 H 9.9170 12.6293 -9.7931 0
M  V30 145 C 11.7207 -9.7503 -10.5029 0
M  V30 146 C 10.9228 -10.9339 -10.9239 0
M  V30 147 C 10.5044 -11.7271 -9.7423 0
M  V30 148 C 9.7488 -10.4965 -11.7287 0
M  V30 149 H 11.2988 -9.0062 -9.8523 0
M  V30 150 H 11.5303 -11.5846 -11.5914 0
M  V30 151 H 9.8819 -11.2040 -9.0028 0
M  V30 152 H 9.0169 -11.1730 -12.1496 0
M  V30 153 C -11.7207 -9.7503 -10.5029 0
M  V30 154 C -10.9199 -10.9292 -10.9315 0
M  V30 155 C -9.7456 -10.4992 -11.7291 0
M  V30 156 C -10.5077 -11.7244 -9.7418 0
M  V30 157 H -11.2841 -8.9822 -9.8910 0
M  V30 158 H -11.5441 -11.6069 -11.5554 0
M  V30 159 H -9.0338 -9.8317 -11.2232 0
M  V30 160 H -9.9170 -12.6293 -9.7931 0
M  V30 161 N 15.4365 -3.7380 8.2064 0
M  V30 162 C 16.0045 -4.6968 9.1220 0
M  V30 163 C 14.9830 -5.6022 9.7351 0
M  V30 164 C 14.2183 -6.4189 8.7474 0
M  V30 165 N 13.2782 -7.2301 9.5403 0
M  V30 166 H 16.7084 -5.3274 8.5322 0
M  V30 167 H 16.5433 -4.1918 9.9565 0
M  V30 168 H 15.5206 -6.3035 10.4089 0
M  V30 169 H 14.2614 -5.0530 10.3633 0
M  V30 170 H 13.6390 -5.8244 8.0244 0
M  V30 171 H 14.8448 -7.1194 8.1670 0
M  V30 172 N 15.4347 3.7396 8.2110 0
M  V30 173 C 16.0557 4.7841 8.9880 0
M  V30 174 C 15.2561 6.0485 9.0202 0
M  V30 175 C 13.8911 5.8941 9.6036 0
M  V30 176 N 13.2765 7.2317 9.5449 0
M  V30 177 H 16.1352 4.4046 10.0324 0
M  V30 178 H 17.0650 5.0402 8.5911 0
M  V30 179 H 15.8112 6.7781 9.6484 0
M  V30 180 H 15.1563 6.5052 8.0210 0
M  V30 181 H 13.2448 5.1911 9.0563 0
M  V30 182 H 13.8912 5.5811 10.6629 0
M  V30 183 N 17.7484 -0.0016 2.1536 0
M  V30 184 C 18.9621 -0.0875 1.3790 0
M  V30 185 C 18.7219 -0.4465 -0.0537 0
M  V30 186 C 17.8619 0.5247 -0.7915 0
M  V30 187 N 17.7484 -0.0016 -2.1629 0
M  V30 188 H 19.4316 0.9224 1.4030 0
M  V30 189 H 19.6590 -0.8487 1.7991 0
M  V30 190 H 19.7105 -0.4749 -0.5605 0
M  V30 191 H 18.2824 -1.4522 -0.1643 0
M  V30 192 H 16.8481 0.6335 -0.3768 0
M  V30 193 H 18.2952 1.5381 -0.8657 0
M  V30 194 N -15.4365 -3.7380 8.2064 0
M  V30 195 C -16.0575 -4.7826 8.9832 0
M  V30 196 C -15.2579 -6.0470 9.0154 0
M  V30 197 C -13.8930 -5.8925 9.5991 0
M  V30 198 N -13.2782 -7.2301 9.5403 0
M  V30 199 H -16.1372 -4.4032 10.0276 0
M  V30 200 H -17.0667 -5.0387 8.5861 0
M  V30 201 H -15.8130 -6.7766 9.6434 0
M  V30 202 H -15.1579 -6.5035 8.0162 0
M  V30 203 H -13.2466 -5.1894 9.0519 0
M  V30 204 H -13.8932 -5.5797 10.6584 0
M  V30 205 N -15.4351 3.7414 8.2100 0
M  V30 206 C -16.0031 4.7002 9.1257 0
M  V30 207 C -14.9815 5.6056 9.7388 0
M  V30 208 C -14.2170 6.4224 8.7510 0
M  V30 209 N -13.2768 7.2335 9.5439 0
M  V30 210 H -16.7070 5.3308 8.5360 0
M  V30 211 H -16.5418 4.1951 9.9602 0
M  V30 212 H -15.5191 6.3069 10.4126 0
M  V30 213 H -14.2599 5.0564 10.3669 0
M  V30 214 H -13.6377 5.8279 8.0280 0
M  V30 215 H -14.8436 7.1229 8.1707 0
M  V30 216 N -17.7481 -0.0035 2.1546 0
M  V30 217 C -18.9617 0.0821 1.3800 0
M  V30 218 C -18.7217 0.4412 -0.0527 0
M  V30 219 C -17.8614 -0.5299 -0.7906 0
M  V30 220 N -17.7481 -0.0035 -2.1619 0
M  V30 221 H -19.4309 -0.9280 1.4040 0
M  V30 222 H -19.6589 0.8431 1.8001 0
M  V30 223 H -19.7103 0.4692 -0.5595 0
M  V30 224 H -18.2825 1.4470 -0.1633 0
M  V30 225 H -16.8475 -0.6383 -0.3758 0
M  V30 226 H -18.2943 -1.5433 -0.8647 0
M  V30 227 N -15.4369 -3.7430 -8.2054 0
M  V30 228 C -16.0050 -4.7020 -9.1208 0
M  V30 229 C -14.9835 -5.6074 -9.7340 0
M  V30 230 C -14.2186 -6.4240 -8.7463 0
M  V30 231 N -13.2786 -7.2352 -9.5393 0
M  V30 232 H -16.7087 -5.3326 -8.5308 0
M  V30 233 H -16.5439 -4.1971 -9.9553 0
M  V30 234 H -15.5212 -6.3088 -10.4076 0
M  V30 235 H -14.2620 -5.0582 -10.3623 0
M  V30 236 H -13.6393 -5.8294 -8.0235 0
M  V30 237 H -14.8450 -7.1245 -8.1658 0
M  V30 238 N -15.4361 3.7430 -8.2074 0
M  V30 239 C -16.0572 4.7877 -8.9841 0
M  V30 240 C -15.2575 6.0521 -9.0163 0
M  V30 241 C -13.8926 5.8976 -9.6001 0
M  V30 242 N -13.2779 7.2352 -9.5413 0
M  V30 243 H -16.1370 4.4084 -10.0285 0
M  V30 244 H -17.0663 5.0438 -8.5869 0
M  V30 245 H -15.8126 6.7817 -9.6442 0
M  V30 246 H -15.1574 6.5086 -8.0171 0
M  V30 247 H -13.2462 5.1945 -9.0530 0
M  V30 248 H -13.8930 5.5848 -10.6594 0
M  V30 249 N 15.4361 -3.7430 -8.2074 0
M  V30 250 C 16.0572 -4.7877 -8.9841 0
M  V30 251 C 15.2575 -6.0521 -9.0163 0
M  V30 252 C 13.8926 -5.8976 -9.6001 0
M  V30 253 N 13.2779 -7.2352 -9.5413 0
M  V30 254 H 16.1370 -4.4084 -10.0285 0
M  V30 255 H 17.0663 -5.0438 -8.5869 0
M  V30 256 H 15.8126 -6.7817 -9.6442 0
M  V30 257 H 15.1574 -6.5086 -8.0171 0
M  V30 258 H 13.2462 -5.1945 -9.0530 0
M  V30 259 H 13.8930 -5.5848 -10.6594 0
M  V30 260 N 15.4369 3.7430 -8.2054 0
M  V30 261 C 16.0050 4.7020 -9.1208 0
M  V30 262 C 14.9835 5.6074 -9.7340 0
M  V30 263 C 14.2186 6.4240 -8.7463 0
M  V30 264 N 13.2786 7.2352 -9.5393 0
M  V30 265 H 16.7087 5.3326 -8.5308 0
M  V30 266 H 16.5439 4.1971 -9.9553 0
M  V30 267 H 15.5212 6.3088 -10.4076 0
M  V30 268 H 14.2620 5.0582 -10.3623 0
M  V30 269 H 13.6393 5.8294 -8.0235 0
M  V30 270 H 14.8450 7.1245 -8.1658 0
M  V30 271 N 8.2072 15.4397 3.7340 0
M  V30 272 C 8.9841 16.0607 4.7785 0
M  V30 273 C 9.0163 15.2611 6.0429 0
M  V30 274 C 9.5998 13.8962 5.8885 0
M  V30 275 N 9.5410 13.2815 7.2261 0
M  V30 276 H 10.0284 16.1403 4.3991 0
M  V30 277 H 8.5871 17.0699 5.0346 0
M  V30 278 H 9.6444 15.8162 6.7725 0
M  V30 279 H 8.0171 15.1612 6.4996 0
M  V30 280 H 9.0526 13.2498 5.1854 0
M  V30 281 H 10.6591 13.8963 5.5756 0
M  V30 282 N 2.1546 17.7481 0.0035 0
M  V30 283 C 1.3800 18.9617 -0.0821 0
M  V30 284 C -0.0527 18.7217 -0.4412 0
M  V30 285 C -0.7906 17.8614 0.5299 0
M  V30 286 N -2.1619 17.7481 0.0035 0
M  V30 287 H 1.4040 19.4309 0.9280 0
M  V30 288 H 1.8001 19.6589 -0.8431 0
M  V30 289 H -0.5595 19.7103 -0.4692 0
M  V30 290 H -0.1633 18.2825 -1.4470 0
M  V30 291 H -0.3758 16.8475 0.6383 0
M  V30 292 H -0.8647 18.2943 1.5433 0
M  V30 293 N 8.2124 15.4370 -3.7372 0
M  V30 294 C 9.1283 16.0049 -4.6959 0
M  V30 295 C 9.7413 14.9833 -5.6012 0
M  V30 296 C 8.7535 14.2189 -6.4182 0
M  V30 297 N 9.5463 13.2787 -7.2293 0
M  V30 298 H 8.5387 16.7089 -5.3265 0
M  V30 299 H 9.9628 16.5434 -4.1906 0
M  V30 300 H 10.4153 15.5208 -6.3024 0
M  V30 301 H 10.3692 14.2615 -5.0520 0
M  V30 302 H 8.0303 13.6397 -5.8238 0
M  V30 303 H 8.1734 14.8456 -7.1187 0
M  V30 304 N 2.1583 -17.7467 0.0000 0
M  V30 305 C 1.3836 -18.9603 0.0858 0
M  V30 306 C -0.0491 -18.7202 0.4448 0
M  V30 307 C -0.7869 -17.8601 -0.5264 0
M  V30 308 N -2.1583 -17.7467 0.0000 0
M  V30 309 H 1.4076 -19.4297 -0.9242 0
M  V30 310 H 1.8037 -19.6574 0.8469 0
M  V30 311 H -0.5559 -19.7088 0.4731 0
M  V30 312 H -0.1597 -18.2808 1.4506 0
M  V30 313 H -0.3722 -16.8463 -0.6350 0
M  V30 314 H -0.8610 -18.2933 -1.5398 0
M  V30 315 N 8.2082 -15.4393 -3.7390 0
M  V30 316 C 8.9850 -16.0604 -4.7837 0
M  V30 317 C 9.0172 -15.2607 -6.0481 0
M  V30 318 C 9.6008 -13.8958 -5.8936 0
M  V30 319 N 9.5420 -13.2811 -7.2312 0
M  V30 320 H 10.0293 -16.1401 -4.4043 0
M  V30 321 H 8.5879 -17.0695 -5.0398 0
M  V30 322 H 9.6452 -15.8158 -6.7777 0
M  V30 323 H 8.0180 -15.1607 -6.5046 0
M  V30 324 H 9.0537 -13.2494 -5.1905 0
M  V30 325 H 10.6602 -13.8961 -5.5807 0
M  V30 326 N 8.2078 -15.4387 3.7388 0
M  V30 327 C 9.1234 -16.0068 4.6977 0
M  V30 328 C 9.7365 -14.9852 5.6030 0
M  V30 329 C 8.7487 -14.2205 6.4198 0
M  V30 330 N 9.5417 -13.2805 7.2309 0
M  V30 331 H 8.5336 -16.7106 5.3283 0
M  V30 332 H 9.9579 -16.5455 4.1926 0
M  V30 333 H 10.4103 -15.5229 6.3044 0
M  V30 334 H 10.3647 -14.2636 5.0538 0
M  V30 335 H 8.0258 -13.6413 5.8253 0
M  V30 336 H 8.1684 -14.8471 7.1203 0
M  V30 337 N -8.2082 -15.4393 3.7390 0
M  V30 338 C -8.9850 -16.0604 4.7837 0
M  V30 339 C -9.0172 -15.2607 6.0481 0
M  V30 340 C -9.6008 -13.8958 5.8936 0
M  V30 341 N -9.5420 -13.2811 7.2312 0
M  V30 342 H -10.0293 -16.1401 4.4043 0
M  V30 343 H -8.5879 -17.0695 5.0398 0
M  V30 344 H -9.6452 -15.8158 6.7777 0
M  V30 345 H -8.0180 -15.1607 6.5046 0
M  V30 346 H -9.0537 -13.2494 5.1905 0
M  V30 347 H -10.6602 -13.8961 5.5807 0
M  V30 348 N -8.2078 -15.4387 -3.7388 0
M  V30 349 C -9.1234 -16.0068 -4.6977 0
M  V30 350 C -9.7365 -14.9852 -5.6030 0
M  V30 351 C -8.7487 -14.2205 -6.4198 0
M  V30 352 N -9.5417 -13.2805 -7.2309 0
M  V30 353 H -8.5336 -16.7106 -5.3283 0
M  V30 354 H -9.9579 -16.5455 -4.1926 0
M  V30 355 H -10.4103 -15.5229 -6.3044 0
M  V30 356 H -10.3647 -14.2636 -5.0538 0
M  V30 357 H -8.0258 -13.6413 -5.8253 0
M  V30 358 H -8.1684 -14.8471 -7.1203 0
M  V30 359 N -8.2078 15.4387 3.7388 0
M  V30 360 C -9.1234 16.0068 4.6977 0
M  V30 361 C -9.7365 14.9852 5.6030 0
M  V30 362 C -8.7487 14.2205 6.4198 0
M  V30 363 N -9.5417 13.2805 7.2309 0
M  V30 364 H -8.5336 16.7106 5.3283 0
M  V30 365 H -9.9579 16.5455 4.1926 0
M  V30 366 H -10.4103 15.5229 6.3044 0
M  V30 367 H -10.3647 14.2636 5.0538 0
M  V30 368 H -8.0258 13.6413 5.8253 0
M  V30 369 H -8.1684 14.8471 7.1203 0
M  V30 370 N -8.2082 15.4393 -3.7390 0
M  V30 371 C -8.9850 16.0604 -4.7837 0
M  V30 372 C -9.0172 15.2607 -6.0481 0
M  V30 373 C -9.6008 13.8958 -5.8936 0
M  V30 374 N -9.5420 13.2811 -7.2312 0
M  V30 375 H -10.0293 16.1401 -4.4043 0
M  V30 376 H -8.5879 17.0695 -5.0398 0
M  V30 377 H -9.6452 15.8158 -6.7777 0
M  V30 378 H -8.0180 15.1607 -6.5046 0
M  V30 379 H -9.0537 13.2494 -5.1905 0
M  V30 380 H -10.6602 13.8961 -5.5807 0
M  V30 381 N -0.0000 2.1583 17.7467 0
M  V30 382 C -0.0858 1.3836 18.9603 0
M  V30 383 C -0.4448 -0.0491 18.7202 0
M  V30 384 C 0.5264 -0.7869 17.8601 0
M  V30 385 N -0.0000 -2.1583 17.7467 0
M  V30 386 H 0.9242 1.4076 19.4297 0
M  V30 387 H -0.8469 1.8037 19.6574 0
M  V30 388 H -0.4731 -0.5559 19.7088 0
M  V30 389 H -1.4506 -0.1597 18.2808 0
M  V30 390 H 0.6350 -0.3722 16.8463 0
M  V30 391 H 1.5398 -0.8610 18.2933 0
M  V30 392 N 3.7423 8.2042 15.4401 0
M  V30 393 C 4.7871 8.9807 16.0612 0
M  V30 394 C 6.0514 9.0129 15.2615 0
M  V30 395 C 5.8969 9.5969 13.8967 0
M  V30 396 N 7.2344 9.5380 13.2818 0
M  V30 397 H 4.4078 10.0251 16.1412 0
M  V30 398 H 5.0432 8.5833 17.0703 0
M  V30 399 H 6.7811 9.6407 15.8167 0
M  V30 400 H 6.5078 8.0136 15.1612 0
M  V30 401 H 5.1936 9.0500 13.2502 0
M  V30 402 H 5.5842 10.6562 13.8972 0
M  V30 403 N -3.7407 8.2035 15.4411 0
M  V30 404 C -4.6997 9.1189 16.0093 0
M  V30 405 C -5.6051 9.7321 14.9878 0
M  V30 406 C -6.4216 8.7444 14.2228 0
M  V30 407 N -7.2328 9.5374 13.2828 0
M  V30 408 H -5.3303 8.5288 16.7129 0
M  V30 409 H -4.1948 9.9533 16.5482 0
M  V30 410 H -6.3065 10.4057 15.5255 0
M  V30 411 H -5.0559 10.3605 14.2664 0
M  V30 412 H -5.8269 8.0217 13.6434 0
M  V30 413 H -7.1221 8.1638 14.8491 0
M  V30 414 N 0.0000 2.1583 -17.7467 0
M  V30 415 C 0.0858 1.3836 -18.9603 0
M  V30 416 C 0.4448 -0.0491 -18.7202 0
M  V30 417 C -0.5264 -0.7869 -17.8601 0
M  V30 418 N 0.0000 -2.1583 -17.7467 0
M  V30 419 H -0.9242 1.4076 -19.4297 0
M  V30 420 H 0.8469 1.8037 -19.6574 0
M  V30 421 H 0.4731 -0.5559 -19.7088 0
M  V30 422 H 1.4506 -0.1597 -18.2808 0
M  V30 423 H -0.6350 -0.3722 -16.8463 0
M  V30 424 H -1.5398 -0.8610 -18.2933 0
M  V30 425 N 3.7407 8.2035 -15.4411 0
M  V30 426 C 4.6997 9.1189 -16.0093 0
M  V30 427 C 5.6051 9.7321 -14.9878 0
M  V30 428 C 6.4216 8.7444 -14.2228 0
M  V30 429 N 7.2328 9.5374 -13.2828 0
M  V30 430 H 5.3303 8.5288 -16.7129 0
M  V30 431 H 4.1948 9.9533 -16.5482 0
M  V30 432 H 6.3065 10.4057 -15.5255 0
M  V30 433 H 5.0559 10.3605 -14.2664 0
M  V30 434 H 5.8269 8.0217 -13.6434 0
M  V30 435 H 7.1221 8.1638 -14.8491 0
M  V30 436 N -3.7423 8.2042 -15.4401 0
M  V30 437 C -4.7871 8.9807 -16.0612 0
M  V30 438 C -6.0514 9.0129 -15.2615 0
M  V30 439 C -5.8969 9.5969 -13.8967 0
M  V30 440 N -7.2344 9.5380 -13.2818 0
M  V30 441 H -4.4078 10.0251 -16.1412 0
M  V30 442 H -5.0432 8.5833 -17.0703 0
M  V30 443 H -6.7811 9.6407 -15.8167 0
M  V30 444 H -6.5078 8.0136 -15.1612 0
M  V30 445 H -5.1936 9.0500 -13.2502 0
M  V30 446 H -5.5842 10.6562 -13.8972 0
M  V30 447 N 3.7423 -8.2042 -15.4401 0
M  V30 448 C 4.7871 -8.9807 -16.0612 0
M  V30 449 C 6.0514 -9.0129 -15.2615 0
M  V30 450 C 5.8969 -9.5969 -13.8967 0
M  V30 451 N 7.2344 -9.5380 -13.2818 0
M  V30 452 H 4.4078 -10.0251 -16.1412 0
M  V30 453 H 5.0432 -8.5833 -17.0703 0
M  V30 454 H 6.7811 -9.6407 -15.8167 0
M  V30 455 H 6.5078 -8.0136 -15.1612 0
M  V30 456 H 5.1936 -9.0500 -13.2502 0
M  V30 457 H 5.5842 -10.6562 -13.8972 0
M  V30 458 N -3.7407 -8.2035 -15.4411 0
M  V30 459 C -4.6997 -9.1189 -16.0093 0
M  V30 460 C -5.6051 -9.7321 -14.9878 0
M  V30 461 C -6.4216 -8.7444 -14.2228 0
M  V30 462 N -7.2328 -9.5374 -13.2828 0
M  V30 463 H -5.3303 -8.5288 -16.7129 0
M  V30 464 H -4.1948 -9.9533 -16.5482 0
M  V30 465 H -6.3065 -10.4057 -15.5255 0
M  V30 466 H -5.0559 -10.3605 -14.2664 0
M  V30 467 H -5.8269 -8.0217 -13.6434 0
M  V30 468 H -7.1221 -8.1638 -14.8491 0
M  V30 469 N -3.7423 -8.2042 15.4401 0
M  V30 470 C -4.7871 -8.9807 16.0612 0
M  V30 471 C -6.0514 -9.0129 15.2615 0
M  V30 472 C -5.8969 -9.5969 13.8967 0
M  V30 473 N -7.2344 -9.5380 13.2818 0
M  V30 474 H -4.4078 -10.0251 16.1412 0
M  V30 475 H -5.0432 -8.5833 17.0703 0
M  V30 476 H -6.7811 -9.6407 15.8167 0
M  V30 477 H -6.5078 -8.0136 15.1612 0
M  V30 478 H -5.1936 -9.0500 13.2502 0
M  V30 479 H -5.5842 -10.6562 13.8972 0
M  V30 480 N 3.7407 -8.2035 15.4411 0
M  V30 481 C 4.6997 -9.1189 16.0093 0
M  V30 482 C 5.6051 -9.7321 14.9878 0
M  V30 483 C 6.4216 -8.7444 14.2228 0
M  V30 484 N 7.2328 -9.5374 13.2828 0
M  V30 485 H 5.3303 -8.5288 16.7129 0
M  V30 486 H 4.1948 -9.9533 16.5482 0
M  V30 487 H 6.3065 -10.4057 15.5255 0
M  V30 488 H 5.0559 -10.3605 14.2664 0
M  V30 489 H 5.8269 -8.0217 13.6434 0
M  V30 490 H 7.1221 -8.1638 14.8491 0
M  V30 END ATOM
M  V30 BEGIN BOND
M  V30 1 1 1 2
M  V30 2 1 2 3
M  V30 3 1 2 4
M  V30 4 1 1 5
M  V30 5 1 2 6
M  V30 6 1 3 7
M  V30 7 1 4 8
M  V30 8 1 9 10
M  V30 9 1 10 11
M  V30 10 1 10 12
M  V30 11 1 9 13
M  V30 12 1 10 14
M  V30 13 1 11 15
M  V30 14 1 12 16
M  V30 15 1 17 18
M  V30 16 1 18 19
M  V30 17 1 18 20
M  V30 18 1 17 21
M  V30 19 1 18 22
M  V30 20 1 19 23
M  V30 21 1 20 24
M  V30 22 1 25 26
M  V30 23 1 26 27
M  V30 24 1 26 28
M  V30 25 1 25 29
M  V30 26 1 26 30
M  V30 27 1 27 31
M  V30 28 1 28 32
M  V30 29 1 33 34
M  V30 30 1 34 35
M  V30 31 1 34 36
M  V30 32 1 33 37
M  V30 33 1 34 38
M  V30 34 1 35 39
M  V30 35 1 36 40
M  V30 36 1 41 42
M  V30 37 1 42 43
M  V30 38 1 42 44
M  V30 39 1 41 45
M  V30 40 1 42 46
M  V30 41 1 43 47
M  V30 42 1 44 48
M  V30 43 1 49 50
M  V30 44 1 50 51
M  V30 45 1 50 52
M  V30 46 1 49 53
M  V30 47 1 50 54
M  V30 48 1 51 55
M  V30 49 1 52 56
M  V30 50 1 57 58
M  V30 51 1 58 59
M  V30 52 1 58 60
M  V30 53 1 57 61
M  V30 54 1 58 62
M  V30 55 1 59 63
M  V30 56 1 60 64
M  V30 57 1 65 66
M  V30 58 1 66 67
M  V30 59 1 66 68
M  V30 60 1 65 69
M  V30 61 1 66 70
M  V30 62 1 67 71
M  V30 63 1 68 72
M  V30 64 1 73 74
M  V30 65 1 74 75
M  V30 66 1 74 76
M  V30 67 1 73 77
M  V30 68 1 74 78
M  V30 69 1 75 79
M  V30 70 1 76 80
M  V30 71 1 81 82
M  V30 72 1 82 83
M  V30 73 1 82 84
M  V30 74 1 81 85
M  V30 75 1 82 86
M  V30 76 1 83 87
M  V30 77 1 84 88
M  V30 78 1 89 90
M  V30 79 1 90 91
M  V30 80 1 90 92
M  V30 81 1 89 93
M  V30 82 1 90 94
M  V30 83 1 91 95
M  V30 84 1 92 96
M  V30 85 1 97 98
M  V30 86 1 98 99
M  V30 87 1 98 100
M  V30 88 1 97 101
M  V30 89 1 98 102
M  V30 90 1 99 103
M  V30 91 1 100 104
M  V30 92 1 105 106
M  V30 93 1 106 107
M  V30 94 1 106 108
M  V30 95 1 105 109
M  V30 96 1 106 110
M  V30 97 1 107 111
M  V30 98 1 108 112
M  V30 99 1 113 114
M  V30 100 1 114 115
M  V30 101 1 114 116
M  V30 102 1 113 117
M  V30 103 1 114 118
M  V30 104 1 115 119
M  V30 105 1 116 120
M  V30 106 1 121 122
M  V30 107 1 122 123
M  V30 108 1 122 124
M  V30 109 1 121 125
M  V30 110 1 122 126
M  V30 111 1 123 127
M  V30 112 1 124 128
M  V30 113 1 129 130
M  V30 114 1 130 131
M  V30 115 1 130 132
M  V30 116 1 129 133
M  V30 117 1 130 134
M  V30 118 1 131 135
M  V30 119 1 132 136
M  V30 120 1 137 138
M  V30 121 1 138 139
M  V30 122 1 138 140
M  V30 123 1 137 141
M  V30 124 1 138 142
M  V30 125 1 139 143
M  V30 126 1 140 144
M  V30 127 1 145 146
M  V30 128 1 146 147
M  V30 129 1 146 148
M  V30 130 1 145 149
M  V30 131 1 146 150
M  V30 132 1 147 151
M  V30 133 1 148 152
M  V30 134 1 153 154
M  V30 135 1 154 155
M  V30 136 1 154 156
M  V30 137 1 153 157
M  V30 138 1 154 158
M  V30 139 1 155 159
M  V30 140 1 156 160
M  V30 141 1 161 162
M  V30 142 1 162 163
M  V30 143 1 163 164
M  V30 144 1 164 165
M  V30 145 1 162 166
M  V30 146 1 162 167
M  V30 147 1 163 168
M  V30 148 1 163 169
M  V30 149 1 164 170
M  V30 150 1 164 171
M  V30 151 1 172 173
M  V30 152 1 173 174
M  V30 153 1 174 175
M  V30 154 1 175 176
M  V30 155 1 173 177
M  V30 156 1 173 178
M  V30 157 1 174 179
M  V30 158 1 174 180
M  V30 159 1 175 181
M  V30 160 1 175 182
M  V30 161 1 183 184
M  V30 162 1 184 185
M  V30 163 1 185 186
M  V30 164 1 186 187
M  V30 165 1 184 188
M  V30 166 1 184 189
M  V30 167 1 185 190
M  V30 168 1 185 191
M  V30 169 1 186 192
M  V30 170 1 186 193
M  V30 171 1 194 195
M  V30 172 1 195 196
M  V30 173 1 196 197
M  V30 174 1 197 198
M  V30 175 1 195 199
M  V30 176 1 195 200
M  V30 177 1 196 201
M  V30 178 1 196 202
M  V30 179 1 197 203
M  V30 180 1 197 204
M  V30 181 1 205 206
M  V30 182 1 206 207
M  V30 183 1 207 208
M  V30 184 1 208 209
M  V30 185 1 206 210
M  V30 186 1 206 211
M  V30 187 1 207 212
M  V30 188 1 207 213
M  V30 189 1 208 214
M  V30 190 1 208 215
M  V30 191 1 216 217
M  V30 192 1 217 218
M  V30 193 1 218 219
M  V30 194 1 219 220
M  V30 195 1 217 221
M  V30 196 1 217 222
M  V30 197 1 218 223
M  V30 198 1 218 224
M  V30 199 1 219 225
M  V30 200 1 219 226
M  V30 201 1 227 228
M  V30 202 1 228 229
M  V30 203 1 229 230
M  V30 204 1 230 231
M  V30 205 1 228 232
M  V30 206 1 228 233
M  V30 207 1 229 234
M  V30 208 1 229 235
M  V30 209 1 230 236
M  V30 210 1 230 237
M  V30 211 1 238 239
M  V30 212 1 239 240
M  V30 213 1 240 241
M  V30 214 1 241 242
M  V30 215 1 239 243
M  V30 216 1 239 244
M  V30 217 1 240 245
M  V30 218 1 240 246
M  V30 219 1 241 247
M  V30 220 1 241 248
M  V30 221 1 249 250
M  V30 222 1 250 251
M  V30 223 1 251 252
M  V30 224 1 252 253
M  V30 225 1 250 254
M  V30 226 1 250 255
M  V30 227 1 251 256
M  V30 228 1 251 257
M  V30 229 1 252 258
M  V30 230 1 252 259
M  V30 231 1 260 261
M  V30 232 1 261 262
M  V30 233 1 262 263
M  V30 234 1 263 264
M  V30 235 1 261 265
M  V30 236 1 261 266
M  V30 237 1 262 267
M  V30 238 1 262 268
M  V30 239 1 263 269
M  V30 240 1 263 270
M  V30 241 1 271 272
M  V30 242 1 272 273
M  V30 243 1 273 274
M  V30 244 1 274 275
M  V30 245 1 272 276
M  V30 246 1 272 277
M  V30 247 1 273 278
M  V30 248 1 273 279
M  V30 249 1 274 280
M  V30 250 1 274 281
M  V30 251 1 282 283
M  V30 252 1 283 284
M  V30 253 1 284 285
M  V30 254 1 285 286
M  V30 255 1 283 287
M  V30 256 1 283 288
M  V30 257 1 284 289
M  V30 258 1 284 290
M  V30 259 1 285 291
M  V30 260 1 285 292
M  V30 261 1 293 294
M  V30 262 1 294 295
M  V30 263 1 295 296
M  V30 264 1 296 297
M  V30 265 1 294 298
M  V30 266 1 294 299
M  V30 267 1 295 300
M  V30 268 1 295 301
M  V30 269 1 296 302
M  V30 270 1 296 303
M  V30 271 1 304 305
M  V30 272 1 305 306
M  V30 273 1 306 307
M  V30 274 1 307 308
M  V30 275 1 305 309
M  V30 276 1 305 310
M  V30 277 1 306 311
M  V30 278 1 306 312
M  V30 279 1 307 313
M  V30 280 1 307 314
M  V30 281 1 315 316
M  V30 282 1 316 317
M  V30 283 1 317 318
M  V30 284 1 318 319
M  V30 285 1 316 320
M  V30 286 1 316 321
M  V30 287 1 317 322
M  V30 288 1 317 323
M  V30 289 1 318 324
M  V30 290 1 318 325
M  V30 291 1 326 327
M  V30 292 1 327 328
M  V30 293 1 328 329
M  V30 294 1 329 330
M  V30 295 1 327 331
M  V30 296 1 327 332
M  V30 297 1 328 333
M  V30 298 1 328 334
M  V30 299 1 329 335
M  V30 300 1 329 336
M  V30 301 1 337 338
M  V30 302 1 338 339
M  V30 303 1 339 340
M  V30 304 1 340 341
M  V30 305 1 338 342
M  V30 306 1 338 343
M  V30 307 1 339 344
M  V30 308 1 339 345
M  V30 309 1 340 346
M  V30 310 1 340 347
M  V30 311 1 348 349
M  V30 312 1 349 350
M  V30 313 1 350 351
M  V30 314 1 351 352
M  V30 315 1 349 353
M  V30 316 1 349 354
M  V30 317 1 350 355
M  V30 318 1 350 356
M  V30 319 1 351 357
M  V30 320 1 351 358
M  V30 321 1 359 360
M  V30 322 1 360 361
M  V30 323 1 361 362
M  V30 324 1 362 363
M  V30 325 1 360 364
M  V30 326 1 360 365
M  V30 327 1 361 366
M  V30 328 1 361 367
M  V30 329 1 362 368
M  V30 330 1 362 369
M  V30 331 1 370 371
M  V30 332 1 371 372
M  V30 333 1 372 373
M  V30 334 1 373 374
M  V30 335 1 371 375
M  V30 336 1 371 376
M  V30 337 1 372 377
M  V30 338 1 372 378
M  V30 339 1 373 379
M  V30 340 1 373 380
M  V30 341 1 381 382
M  V30 342 1 382 383
M  V30 343 1 383 384
M  V30 344 1 384 385
M  V30 345 1 382 386
M  V30 346 1 382 387
M  V30 347 1 383 388
M  V30 348 1 383 389
M  V30 349 1 384 390
M  V30 350 1 384 391
M  V30 351 1 392 393
M  V30 352 1 393 394
M  V30 353 1 394 395
M  V30 354 1 395 396
M  V30 355 1 393 397
M  V30 356 1 393 398
M  V30 357 1 394 399
M  V30 358 1 394 400
M  V30 359 1 395 401
M  V30 360 1 395 402
M  V30 361 1 403 404
M  V30 362 1 404 405
M  V30 363 1 405 406
M  V30 364 1 406 407
M  V30 365 1 404 408
M  V30 366 1 404 409
M  V30 367 1 405 410
M  V30 368 1 405 411
M  V30 369 1 406 412
M  V30 370 1 406 413
M  V30 371 1 414 415
M  V30 372 1 415 416
M  V30 373 1 416 417
M  V30 374 1 417 418
M  V30 375 1 415 419
M  V30 376 1 415 420
M  V30 377 1 416 421
M  V30 378 1 416 422
M  V30 379 1 417 423
M  V30 380 1 417 424
M  V30 381 1 425 426
M  V30 382 1 426 427
M  V30 383 1 427 428
M  V30 384 1 428 429
M  V30 385 1 426 430
M  V30 386 1 426 431
M  V30 387 1 427 432
M  V30 388 1 427 433
M  V30 389 1 428 434
M  V30 390 1 428 435
M  V30 391 1 436 437
M  V30 392 1 437 438
M  V30 393 1 438 439
M  V30 394 1 439 440
M  V30 395 1 437 441
M  V30 396 1 437 442
M  V30 397 1 438 443
M  V30 398 1 438 444
M  V30 399 1 439 445
M  V30 400 1 439 446
M  V30 401 1 447 448
M  V30 402 1 448 449
M  V30 403 1 449 450
M  V30 404 1 450 451
M  V30 405 1 448 452
M  V30 406 1 448 453
M  V30 407 1 449 454
M  V30 408 1 449 455
M  V30 409 1 450 456
M  V30 410 1 450 457
M  V30 411 1 458 459
M  V30 412 1 459 460
M  V30 413 1 460 461
M  V30 414 1 461 462
M  V30 415 1 459 463
M  V30 416 1 459 464
M  V30 417 1 460 465
M  V30 418 1 460 466
M  V30 419 1 461 467
M  V30 420 1 461 468
M  V30 421 1 469 470
M  V30 422 1 470 471
M  V30 423 1 471 472
M  V30 424 1 472 473
M  V30 425 1 470 474
M  V30 426 1 470 475
M  V30 427 1 471 476
M  V30 428 1 471 477
M  V30 429 1 472 478
M  V30 430 1 472 479
M  V30 431 1 480 481
M  V30 432 1 481 482
M  V30 433 1 482 483
M  V30 434 1 483 484
M  V30 435 1 481 485
M  V30 436 1 481 486
M  V30 437 1 482 487
M  V30 438 1 482 488
M  V30 439 1 483 489
M  V30 440 1 483 490
M  V30 441 2 1 161
M  V30 442 2 105 165
M  V30 443 2 4 172
M  V30 444 2 97 176
M  V30 445 2 3 183
M  V30 446 2 25 187
M  V30 447 2 9 194
M  V30 448 2 113 198
M  V30 449 2 11 205
M  V30 450 2 121 209
M  V30 451 2 12 216
M  V30 452 2 17 220
M  V30 453 2 20 227
M  V30 454 2 153 231
M  V30 455 2 19 238
M  V30 456 2 129 242
M  V30 457 2 27 249
M  V30 458 2 145 253
M  V30 459 2 28 260
M  V30 460 2 137 264
M  V30 461 2 33 271
M  V30 462 2 99 275
M  V30 463 2 36 282
M  V30 464 2 57 286
M  V30 465 2 35 293
M  V30 466 2 140 297
M  V30 467 2 41 304
M  V30 468 2 49 308
M  V30 469 2 43 315
M  V30 470 2 147 319
M  V30 471 2 44 326
M  V30 472 2 108 330
M  V30 473 2 51 337
M  V30 474 2 115 341
M  V30 475 2 52 348
M  V30 476 2 156 352
M  V30 477 2 60 359
M  V30 478 2 124 363
M  V30 479 2 59 370
M  V30 480 2 131 374
M  V30 481 2 65 381
M  V30 482 2 89 385
M  V30 483 2 67 392
M  V30 484 2 100 396
M  V30 485 2 68 403
M  V30 486 2 123 407
M  V30 487 2 73 414
M  V30 488 2 81 418
M  V30 489 2 76 425
M  V30 490 2 139 429
M  V30 491 2 75 436
M  V30 492 2 132 440
M  V30 493 2 83 447
M  V30 494 2 148 451
M  V30 495 2 84 458
M  V30 496 2 155 462
M  V30 497 2 91 469
M  V30 498 2 116 473
M  V30 499 2 92 480
M  V30 500 2 107 484
M  V30 END BOND
M  V30 END CTAB
M  END

$$$$
