
     RDKit          3D

  0  0  0  0  0  0  0  0  0  0999 V3000
M  V30 BEGIN CTAB
M  V30 COUNTS 167 199 0 0 0
M  V30 BEGIN ATOM
M  V30 1 C -1.3406 -0.7325 8.8030 0
M  V30 2 C -0.1143 -0.0299 9.2688 0
M  V30 3 C 1.1018 -0.7403 8.8030 0
M  V30 4 C -0.1298 1.3844 8.8030 0
M  V30 5 H -1.5307 -0.8699 7.7542 0
M  V30 6 H -0.0978 0.0107 10.3806 0
M  V30 7 H 1.2184 -0.8396 7.7146 0
M  V30 8 H 0.6533 2.1004 9.0141 0
M  V30 9 C -7.6341 -4.3660 -1.4742 0
M  V30 10 C -7.6087 -4.3460 -2.9620 0
M  V30 11 C -7.6386 -2.9507 -3.4648 0
M  V30 12 C -6.4119 -5.0783 -3.4608 0
M  V30 13 H -6.8571 -3.8898 -0.9046 0
M  V30 14 H -8.4931 -4.8876 -3.3652 0
M  V30 15 H -6.8072 -2.3041 -3.1503 0
M  V30 16 H -6.1709 -5.2029 -4.5081 0
M  V30 17 C 7.3883 -4.3660 -1.4742 0
M  V30 18 C 7.3583 -4.3541 -2.9620 0
M  V30 19 C 6.1649 -5.0776 -3.4648 0
M  V30 20 C 7.3940 -2.9515 -3.4608 0
M  V30 21 H 6.5874 -3.9312 -0.9046 0
M  V30 22 H 8.2696 -4.8492 -3.3652 0
M  V30 23 H 5.1892 -4.6810 -3.1503 0
M  V30 24 H 7.3815 -2.6804 -4.5081 0
M  V30 25 C -0.1229 8.6438 -1.4742 0
M  V30 26 C -0.1182 8.6118 -2.9620 0
M  V30 27 C 1.1050 7.9400 -3.4648 0
M  V30 28 C -1.3508 7.9414 -3.4608 0
M  V30 29 H -0.0990 7.7327 -0.9046 0
M  V30 30 H -0.1451 9.6485 -3.3652 0
M  V30 31 H 1.2494 6.8967 -3.1503 0
M  V30 32 H -1.5792 7.7950 -4.5081 0
M  V30 33 N -3.7624 -2.1307 4.8482 0
M  V30 34 C -4.6645 -3.2339 4.8546 0
M  V30 35 Cl -3.7808 -4.7416 4.6087 0
M  V30 36 C -5.7605 -3.0655 3.8046 0
M  V30 37 N -5.2123 -2.9678 2.4806 0
M  V30 38 H -5.2111 -3.2725 5.8405 0
M  V30 39 H -6.2870 -2.1132 4.0476 0
M  V30 40 H -6.5081 -3.8656 3.9012 0
M  V30 41 N 3.1659 -1.9301 5.4266 0
M  V30 42 C 4.3684 -2.7238 5.4948 0
M  V30 43 C 4.7354 -3.3501 4.1863 0
M  V30 44 C 4.9820 -2.3708 3.0874 0
M  V30 45 N 5.3242 -3.1762 1.9022 0
M  V30 46 H 5.1934 -2.0340 5.7856 0
M  V30 47 H 4.2704 -3.5463 6.2401 0
M  V30 48 H 5.6735 -3.9247 4.3433 0
M  V30 49 H 3.9770 -4.0735 3.8422 0
M  V30 50 H 4.1122 -1.7429 2.8407 0
M  V30 51 H 5.8322 -1.6917 3.2772 0
M  V30 52 N -0.1263 3.7680 5.4266 0
M  V30 53 C -0.0412 5.2063 5.4948 0
M  V30 54 C 0.3179 5.8375 4.1865 0
M  V30 55 C -0.6528 5.5608 3.0872 0
M  V30 56 N -0.1263 6.2602 1.9022 0
M  V30 57 H -1.0515 5.5752 5.7852 0
M  V30 58 H 0.7195 5.5332 6.2405 0
M  V30 59 H 0.3457 6.9373 4.3435 0
M  V30 60 H 1.3239 5.5431 3.8429 0
M  V30 61 H -0.7609 4.4935 2.8404 0
M  V30 62 H -1.6664 5.9568 3.2764 0
M  V30 63 N -2.2817 -5.0779 -3.4628 0
M  V30 64 C -1.5071 -6.0200 -4.2327 0
M  V30 65 C -0.0744 -5.6168 -4.3876 0
M  V30 66 C 0.6635 -5.4741 -3.0981 0
M  V30 67 N 2.0348 -5.0779 -3.4628 0
M  V30 68 H -1.5311 -6.9859 -3.6783 0
M  V30 69 H -1.9272 -6.1505 -5.2565 0
M  V30 70 H 0.4324 -6.4081 -4.9808 0
M  V30 71 H 0.0362 -4.6778 -4.9559 0
M  V30 72 H 0.2487 -4.7085 -2.4247 0
M  V30 73 H 0.7376 -6.4124 -2.5200 0
M  V30 74 N -5.5738 0.6262 -3.4628 0
M  V30 75 C -6.0880 1.8176 -4.0926 0
M  V30 76 C -5.3811 3.0638 -3.6608 0
M  V30 77 C -3.9186 3.0714 -3.9582 0
M  V30 78 N -3.4155 4.3644 -3.4628 0
M  V30 79 H -5.9277 1.6973 -5.1884 0
M  V30 80 H -7.1713 1.9580 -3.8727 0
M  V30 81 H -5.8412 3.9146 -4.2078 0
M  V30 82 H -5.5172 3.2701 -2.5857 0
M  V30 83 H -3.3544 2.2668 -3.4623 0
M  V30 84 H -3.6819 3.0203 -5.0359 0
M  V30 85 N 5.3287 0.6252 -3.4628 0
M  V30 86 C 5.7572 1.7671 -4.2327 0
M  V30 87 C 4.6916 2.8062 -4.3876 0
M  V30 88 C 4.1992 3.3739 -3.0981 0
M  V30 89 N 3.1704 4.3634 -3.4628 0
M  V30 90 H 6.6057 2.2292 -3.6783 0
M  V30 91 H 6.0803 1.4685 -5.2565 0
M  V30 92 H 5.1236 3.6407 -4.9808 0
M  V30 93 H 3.8232 2.4325 -4.9559 0
M  V30 94 H 3.7435 2.6319 -2.4247 0
M  V30 95 H 4.9747 3.9072 -2.5200 0
M  V30 96 C 0.4111 -0.3354 -2.9599 0
M  V30 97 C -0.4891 0.4454 -2.2170 0
M  V30 98 C 0.0458 1.7252 -2.1336 0
M  V30 99 C 1.2661 1.7188 -2.8275 0
M  V30 100 C 1.4836 0.4529 -3.3481 0
M  V30 101 C 0.8398 -3.0990 -0.9032 0
M  V30 102 C -0.0287 -2.2106 -1.5322 0
M  V30 103 C 0.6245 -1.6825 -2.6307 0
M  V30 104 C 1.9112 -2.2305 -2.6825 0
M  V30 105 C 2.0438 -3.1103 -1.6087 0
M  V30 106 C 1.2673 1.3407 3.0255 0
M  V30 107 C 1.4848 0.0184 3.3787 0
M  V30 108 C 0.4122 -0.7134 2.8928 0
M  V30 109 C -0.4883 0.1564 2.2568 0
M  V30 110 C 0.0467 1.4363 2.3386 0
M  V30 111 C 3.4288 3.1248 -0.5020 0
M  V30 112 C 2.2162 3.1866 -1.1847 0
M  V30 113 C 2.3540 2.4745 -2.3628 0
M  V30 114 C 3.6519 1.9538 -2.4125 0
M  V30 115 C 4.3185 2.3580 -1.2560 0
M  V30 116 C 3.8717 0.6596 -2.9378 0
M  V30 117 C 2.7912 -0.0868 -3.4094 0
M  V30 118 C 3.0050 -1.4238 -3.0723 0
M  V30 119 C 4.2179 -1.5051 -2.3803 0
M  V30 120 C 4.7539 -0.2164 -2.2971 0
M  V30 121 C 3.8728 0.2762 2.9975 0
M  V30 122 C 4.7547 -0.5100 2.2491 0
M  V30 123 C 4.2187 -1.7987 2.1660 0
M  V30 124 C 3.0062 -1.8071 2.8632 0
M  V30 125 C 2.7924 -0.5247 3.3696 0
M  V30 126 C 3.6528 1.6273 2.6433 0
M  V30 127 C 4.3191 2.1769 1.5480 0
M  V30 128 C 3.4291 3.0342 0.8993 0
M  V30 129 C 2.2167 3.0077 1.5848 0
M  V30 130 C 2.3550 2.1500 2.6613 0
M  V30 131 C 5.2158 1.3860 0.7895 0
M  V30 132 C 5.2156 1.4760 -0.6058 0
M  V30 133 C 5.4295 0.1947 -1.1222 0
M  V30 134 C 5.5607 -0.6877 -0.0451 0
M  V30 135 C 5.4299 0.0488 1.1366 0
M  V30 136 C 3.2710 -3.2896 0.4878 0
M  V30 137 C 4.3513 -2.5446 0.9693 0
M  V30 138 C 5.0179 -1.9927 -0.1293 0
M  V30 139 C 4.3509 -2.3988 -1.2896 0
M  V30 140 C 3.2707 -3.1995 -0.9075 0
M  V30 141 C 0.9781 3.1816 -0.4915 0
M  V30 142 C 0.9784 3.0918 0.8971 0
M  V30 143 C -0.1686 2.3909 1.3162 0
M  V30 144 C -1.1121 2.1710 0.1408 0
M  V30 145 C -0.1690 2.5403 -0.9969 0
M  V30 146 C 0.6255 -2.0070 2.3929 0
M  V30 147 C 1.9122 -2.5570 2.3733 0
M  V30 148 C 2.0443 -3.2914 1.1951 0
M  V30 149 C 0.8401 -3.1894 0.4975 0
M  V30 150 C -0.0283 -2.3894 1.2358 0
M  V30 151 C -0.9329 -1.4088 -0.7882 0
M  V30 152 C -1.2773 -0.0963 -1.1708 0
M  V30 153 C -1.7541 0.7033 0.0461 0
M  V30 154 C -1.2770 -0.2462 1.1500 0
M  V30 155 C -0.9326 -1.4986 0.6015 0
M  V30 156 C -3.3026 0.8346 0.0546 0
M  V30 157 C -4.0748 -0.4969 -0.0317 0
M  V30 158 C -5.5841 -0.2574 -0.0166 0
M  V30 159 O -6.2485 -1.4872 -0.0967 0
M  V30 160 H -3.6047 1.4698 -0.8078 0
M  V30 161 H -3.6048 1.3534 0.9917 0
M  V30 162 H -3.8118 -1.1440 0.8324 0
M  V30 163 H -3.8114 -1.0273 -0.9720 0
M  V30 164 H -5.8624 0.3750 -0.8896 0
M  V30 165 H -5.8631 0.2571 0.9303 0
M  V30 166 H -7.2183 -1.2770 -0.0847 0
M  V30 167 H -1.9108 2.9428 0.1909 0
M  V30 END ATOM
M  V30 BEGIN BOND
M  V30 1 1 1 2
M  V30 2 1 2 3
M  V30 3 1 2 4
M  V30 4 1 1 5
M  V30 5 1 2 6
M  V30 6 1 3 7
M  V30 7 1 4 8
M  V30 8 1 9 10
M  V30 9 1 10 11
M  V30 10 1 10 12
M  V30 11 1 9 13
M  V30 12 1 10 14
M  V30 13 1 11 15
M  V30 14 1 12 16
M  V30 15 1 17 18
M  V30 16 1 18 19
M  V30 17 1 18 20
M  V30 18 1 17 21
M  V30 19 1 18 22
M  V30 20 1 19 23
M  V30 21 1 20 24
M  V30 22 1 25 26
M  V30 23 1 26 27
M  V30 24 1 26 28
M  V30 25 1 25 29
M  V30 26 1 26 30
M  V30 27 1 27 31
M  V30 28 1 28 32
M  V30 29 1 33 34
M  V30 30 1 34 35
M  V30 31 1 34 36
M  V30 32 1 36 37
M  V30 33 1 34 38
M  V30 34 1 36 39
M  V30 35 1 36 40
M  V30 36 1 41 42
M  V30 37 1 42 43
M  V30 38 1 43 44
M  V30 39 1 44 45
M  V30 40 1 42 46
M  V30 41 1 42 47
M  V30 42 1 43 48
M  V30 43 1 43 49
M  V30 44 1 44 50
M  V30 45 1 44 51
M  V30 46 1 52 53
M  V30 47 1 53 54
M  V30 48 1 54 55
M  V30 49 1 55 56
M  V30 50 1 53 57
M  V30 51 1 53 58
M  V30 52 1 54 59
M  V30 53 1 54 60
M  V30 54 1 55 61
M  V30 55 1 55 62
M  V30 56 1 63 64
M  V30 57 1 64 65
M  V30 58 1 65 66
M  V30 59 1 66 67
M  V30 60 1 64 68
M  V30 61 1 64 69
M  V30 62 1 65 70
M  V30 63 1 65 71
M  V30 64 1 66 72
M  V30 65 1 66 73
M  V30 66 1 74 75
M  V30 67 1 75 76
M  V30 68 1 76 77
M  V30 69 1 77 78
M  V30 70 1 75 79
M  V30 71 1 75 80
M  V30 72 1 76 81
M  V30 73 1 76 82
M  V30 74 1 77 83
M  V30 75 1 77 84
M  V30 76 1 85 86
M  V30 77 1 86 87
M  V30 78 1 87 88
M  V30 79 1 88 89
M  V30 80 1 86 90
M  V30 81 1 86 91
M  V30 82 1 87 92
M  V30 83 1 87 93
M  V30 84 1 88 94
M  V30 85 1 88 95
M  V30 86 2 1 33
M  V30 87 2 9 37
M  V30 88 2 3 41
M  V30 89 2 17 45
M  V30 90 2 4 52
M  V30 91 2 25 56
M  V30 92 2 12 63
M  V30 93 2 19 67
M  V30 94 2 11 74
M  V30 95 2 28 78
M  V30 96 2 20 85
M  V30 97 2 27 89
M  V30 98 1 96 103
M  V30 99 1 97 96
M  V30 100 2 98 99
M  V30 101 1 98 97
M  V30 102 1 99 100
M  V30 103 2 100 96
M  V30 104 1 100 117
M  V30 105 2 101 105
M  V30 106 1 102 103
M  V30 107 1 102 101
M  V30 108 2 103 104
M  V30 109 1 104 105
M  V30 110 1 105 140
M  V30 111 1 106 107
M  V30 112 1 107 108
M  V30 113 2 107 125
M  V30 114 1 108 146
M  V30 115 2 109 108
M  V30 116 1 109 154
M  V30 117 1 110 106
M  V30 118 1 110 109
M  V30 119 1 111 115
M  V30 120 2 112 111
M  V30 121 1 112 113
M  V30 122 1 113 99
M  V30 123 2 113 114
M  V30 124 1 114 116
M  V30 125 2 115 132
M  V30 126 1 115 114
M  V30 127 1 116 117
M  V30 128 2 116 120
M  V30 129 2 117 118
M  V30 130 1 118 119
M  V30 131 1 118 104
M  V30 132 2 119 139
M  V30 133 1 120 119
M  V30 134 1 121 125
M  V30 135 1 121 122
M  V30 136 1 122 135
M  V30 137 2 122 123
M  V30 138 1 123 137
M  V30 139 2 124 147
M  V30 140 1 124 123
M  V30 141 1 125 124
M  V30 142 1 126 127
M  V30 143 2 126 121
M  V30 144 1 127 131
M  V30 145 2 128 127
M  V30 146 1 128 111
M  V30 147 1 129 130
M  V30 148 1 129 128
M  V30 149 2 130 106
M  V30 150 1 130 126
M  V30 151 1 131 132
M  V30 152 2 131 135
M  V30 153 1 132 133
M  V30 154 2 133 134
M  V30 155 1 133 120
M  V30 156 1 134 138
M  V30 157 1 135 134
M  V30 158 2 136 140
M  V30 159 2 137 138
M  V30 160 1 137 136
M  V30 161 1 138 139
M  V30 162 1 139 140
M  V30 163 2 141 145
M  V30 164 1 141 112
M  V30 165 2 142 129
M  V30 166 1 142 143
M  V30 167 1 142 141
M  V30 168 2 143 110
M  V30 169 1 143 144
M  V30 170 1 144 145
M  V30 171 1 144 153
M  V30 172 1 144 167
M  V30 173 1 145 98
M  V30 174 2 146 150
M  V30 175 1 146 147
M  V30 176 1 147 148
M  V30 177 1 148 136
M  V30 178 2 149 148
M  V30 179 1 149 101
M  V30 180 1 150 149
M  V30 181 2 151 102
M  V30 182 2 152 97
M  V30 183 1 152 151
M  V30 184 1 153 154
M  V30 185 1 153 152
M  V30 186 1 153 156
M  V30 187 2 154 155
M  V30 188 1 155 150
M  V30 189 1 155 151
M  V30 190 1 156 157
M  V30 191 1 156 160
M  V30 192 1 156 161
M  V30 193 1 157 158
M  V30 194 1 157 162
M  V30 195 1 157 163
M  V30 196 1 158 159
M  V30 197 1 158 164
M  V30 198 1 158 165
M  V30 199 1 159 166
M  V30 END BOND
M  V30 END CTAB
M  END

$$$$
