
     RDKit          3D

  0  0  0  0  0  0  0  0  0  0999 V3000
M  V30 BEGIN CTAB
M  V30 COUNTS 441 450 0 0 0
M  V30 BEGIN ATOM
M  V30 1 C 18.9810 10.9584 51.2766 0
M  V30 2 C 17.7546 10.2557 51.7424 0
M  V30 3 C 16.5386 10.9662 51.2766 0
M  V30 4 C 17.7702 8.8414 51.2766 0
M  V30 5 H 19.1711 11.0957 50.2279 0
M  V30 6 H 17.7382 10.2152 52.8542 0
M  V30 7 H 16.4220 11.0655 50.1882 0
M  V30 8 H 16.9870 8.1255 51.4877 0
M  V30 9 C 34.3088 19.8076 51.2766 0
M  V30 10 C 35.5351 20.5102 51.7424 0
M  V30 11 C 36.7512 19.7998 51.2766 0
M  V30 12 C 35.5196 21.9245 51.2766 0
M  V30 13 H 34.1187 19.6702 50.2279 0
M  V30 14 H 35.5516 20.5508 52.8542 0
M  V30 15 H 36.8678 19.7004 50.1882 0
M  V30 16 H 36.3028 22.6405 51.4877 0
M  V30 17 N 24.7758 14.3039 51.2766 0
M  V30 18 C 25.4895 14.6169 52.4903 0
M  V30 19 C 26.9098 15.0223 52.2502 0
M  V30 20 C 27.0632 16.2323 51.3901 0
M  V30 21 N 28.5140 16.4621 51.2766 0
M  V30 22 H 24.9637 15.4796 52.9597 0
M  V30 23 H 25.5063 13.7477 53.1873 0
M  V30 24 H 27.3628 15.2512 53.2388 0
M  V30 25 H 27.5084 14.2066 51.8108 0
M  V30 26 H 26.6497 16.1190 50.3762 0
M  V30 27 H 26.6207 17.1470 51.8232 0
M  V30 28 N 17.7633 2.1583 51.2766 0
M  V30 29 C 18.0795 1.3836 52.4515 0
M  V30 30 C 17.6616 -0.0491 52.3421 0
M  V30 31 C 18.2978 -0.7869 51.2115 0
M  V30 32 N 17.7633 -2.1583 51.2766 0
M  V30 33 H 19.1875 1.4076 52.5645 0
M  V30 34 H 17.5884 1.8037 53.3593 0
M  V30 35 H 17.9585 -0.5559 53.2855 0
M  V30 36 H 16.5674 -0.1597 52.2562 0
M  V30 37 H 18.0686 -0.3722 50.2180 0
M  V30 38 H 19.3971 -0.8610 51.2891 0
M  V30 39 N 10.7507 14.3039 51.2766 0
M  V30 40 C 10.3190 15.1054 52.3954 0
M  V30 41 C 9.2086 16.0475 52.0509 0
M  V30 42 C 7.9700 15.3778 51.5561 0
M  V30 43 N 7.0125 16.4621 51.2766 0
M  V30 44 H 9.9395 14.4000 53.1695 0
M  V30 45 H 11.1565 15.7158 52.8048 0
M  V30 46 H 8.9449 16.6042 52.9758 0
M  V30 47 H 9.5161 16.8013 51.3065 0
M  V30 48 H 8.1119 14.7942 50.6337 0
M  V30 49 H 7.4979 14.7084 52.2971 0
M  V30 50 C 36.7443 41.7243 51.2766 0
M  V30 51 C 35.5179 41.0217 51.7424 0
M  V30 52 C 34.3019 41.7321 51.2766 0
M  V30 53 C 35.5334 39.6074 51.2766 0
M  V30 54 H 36.9344 41.8617 50.2279 0
M  V30 55 H 35.5014 40.9811 52.8542 0
M  V30 56 H 34.1852 41.8315 50.1882 0
M  V30 57 H 34.7503 38.8915 51.4877 0
M  V30 58 C 52.0720 50.5735 51.2766 0
M  V30 59 C 53.2984 51.2762 51.7424 0
M  V30 60 C 54.5144 50.5658 51.2766 0
M  V30 61 C 53.2829 52.6905 51.2766 0
M  V30 62 H 51.8819 50.4362 50.2279 0
M  V30 63 H 53.3148 51.3167 52.8542 0
M  V30 64 H 54.6311 50.4664 50.1882 0
M  V30 65 H 54.0660 53.4064 51.4877 0
M  V30 66 N 42.5390 45.0698 51.2766 0
M  V30 67 C 43.0518 45.7310 52.4515 0
M  V30 68 C 44.5015 46.0855 52.3421 0
M  V30 69 C 44.8224 47.0053 51.2115 0
M  V30 70 N 46.2773 47.2280 51.2766 0
M  V30 71 H 42.4770 46.6785 52.5645 0
M  V30 72 H 42.9335 45.0957 53.3593 0
M  V30 73 H 44.7919 46.5959 53.2855 0
M  V30 74 H 45.1443 45.1932 52.2562 0
M  V30 75 H 44.5778 46.5995 50.2180 0
M  V30 76 H 44.3369 47.9944 51.2891 0
M  V30 77 N 35.5265 32.9242 51.2766 0
M  V30 78 C 36.1472 32.1496 52.3231 0
M  V30 79 C 35.7153 30.7169 52.3302 0
M  V30 80 C 36.0238 29.9790 51.0701 0
M  V30 81 N 35.5265 28.6077 51.2766 0
M  V30 82 H 37.2447 32.1736 52.1338 0
M  V30 83 H 35.9185 32.5697 53.3295 0
M  V30 84 H 36.2551 30.2101 53.1589 0
M  V30 85 H 34.6383 30.6063 52.5418 0
M  V30 86 H 35.5357 30.3937 50.1749 0
M  V30 87 H 37.1035 29.9049 50.8490 0
M  V30 88 N 28.5140 45.0698 51.2766 0
M  V30 89 C 28.3101 46.2660 52.0563 0
M  V30 90 C 27.1073 47.0481 51.6312 0
M  V30 91 C 25.8217 46.2971 51.7346 0
M  V30 92 N 24.7758 47.2280 51.2766 0
M  V30 93 H 28.1499 45.9405 53.1096 0
M  V30 94 H 29.1889 46.9480 51.9912 0
M  V30 95 H 27.0344 47.9354 52.2962 0
M  V30 96 H 27.2019 47.4331 50.6017 0
M  V30 97 H 25.7780 45.3918 51.1099 0
M  V30 98 H 25.5623 45.9960 52.7651 0
M  V30 99 C 54.5075 72.4903 51.2766 0
M  V30 100 C 53.2812 71.7877 51.7424 0
M  V30 101 C 52.0651 72.4981 51.2766 0
M  V30 102 C 53.2967 70.3734 51.2766 0
M  V30 103 H 54.6976 72.6276 50.2279 0
M  V30 104 H 53.2647 71.7471 52.8542 0
M  V30 105 H 51.9485 72.5974 50.1882 0
M  V30 106 H 52.5135 69.6574 51.4877 0
M  V30 107 C 71.0530 83.4487 51.2766 0
M  V30 108 C 71.0483 82.0353 51.7424 0
M  V30 109 C 69.8251 81.3374 51.2766 0
M  V30 110 C 72.2809 81.3416 51.2766 0
M  V30 111 H 71.0291 83.6820 50.2279 0
M  V30 112 H 71.0752 82.0008 52.8542 0
M  V30 113 H 69.6807 81.2861 50.1882 0
M  V30 114 H 72.5094 80.3054 51.4877 0
M  V30 115 N 60.3023 75.8358 51.2766 0
M  V30 116 C 60.6628 76.7606 52.3231 0
M  V30 117 C 62.1195 77.1029 52.3302 0
M  V30 118 C 62.6043 77.7390 51.0701 0
M  V30 119 N 64.0405 77.9940 51.2766 0
M  V30 120 H 60.0933 77.6991 52.1338 0
M  V30 121 H 60.4133 76.3525 53.3295 0
M  V30 122 H 62.2885 77.8238 53.1589 0
M  V30 123 H 62.7538 76.2255 52.5418 0
M  V30 124 H 62.4891 77.1090 50.1749 0
M  V30 125 H 62.1286 78.7111 50.8490 0
M  V30 126 N 53.2898 63.6902 51.2766 0
M  V30 127 C 54.1048 62.9155 52.1800 0
M  V30 128 C 53.6829 61.4828 52.2722 0
M  V30 129 C 53.7365 60.7450 50.9760 0
M  V30 130 N 53.2898 59.3737 51.2766 0
M  V30 131 H 55.1434 62.9396 51.7777 0
M  V30 132 H 54.0794 63.3356 53.2117 0
M  V30 133 H 54.3756 60.9761 52.9780 0
M  V30 134 H 52.6689 61.3722 52.6923 0
M  V30 135 H 53.0812 61.1597 50.1947 0
M  V30 136 H 54.7512 60.6709 50.5461 0
M  V30 137 N 46.2773 75.8358 51.2766 0
M  V30 138 C 46.1534 77.1705 51.8092 0
M  V30 139 C 44.8984 77.8622 51.3782 0
M  V30 140 C 43.6441 77.1655 51.7892 0
M  V30 141 N 42.5390 77.9940 51.2766 0
M  V30 142 H 46.1249 77.0732 52.9186 0
M  V30 143 H 47.0093 77.8128 51.4985 0
M  V30 144 H 44.8946 78.8693 51.8480 0
M  V30 145 H 44.8638 78.0234 50.2875 0
M  V30 146 H 43.5372 76.1507 51.3764 0
M  V30 147 H 43.5142 77.0886 52.8834 0
M  V30 148 C 54.5075 10.9584 51.2766 0
M  V30 149 C 53.2812 10.2557 51.7424 0
M  V30 150 C 52.0651 10.9662 51.2766 0
M  V30 151 C 53.2967 8.8414 51.2766 0
M  V30 152 H 54.6976 11.0957 50.2279 0
M  V30 153 H 53.2647 10.2152 52.8542 0
M  V30 154 H 51.9485 11.0655 50.1882 0
M  V30 155 H 52.5135 8.1255 51.4877 0
M  V30 156 C 69.8353 19.8076 51.2766 0
M  V30 157 C 71.0616 20.5102 51.7424 0
M  V30 158 C 72.2777 19.7998 51.2766 0
M  V30 159 C 71.0461 21.9245 51.2766 0
M  V30 160 H 69.6452 19.6702 50.2279 0
M  V30 161 H 71.0781 20.5508 52.8542 0
M  V30 162 H 72.3943 19.7004 50.1882 0
M  V30 163 H 71.8293 22.6405 51.4877 0
M  V30 164 N 60.3023 14.3039 51.2766 0
M  V30 165 C 61.2123 14.2769 52.3954 0
M  V30 166 C 62.5834 14.7676 52.0509 0
M  V30 167 C 62.6228 16.1750 51.5561 0
M  V30 168 N 64.0405 16.4621 51.2766 0
M  V30 169 H 60.7911 14.9584 53.1695 0
M  V30 170 H 61.3222 13.2465 52.8048 0
M  V30 171 H 63.1974 14.7176 52.9758 0
M  V30 172 H 63.0824 14.1244 51.3065 0
M  V30 173 H 62.0464 16.3440 50.6337 0
M  V30 174 H 62.2791 16.9186 52.2971 0
M  V30 175 N 53.2898 2.1583 51.2766 0
M  V30 176 C 54.1048 1.3836 52.1800 0
M  V30 177 C 53.6829 -0.0491 52.2722 0
M  V30 178 C 53.7365 -0.7869 50.9760 0
M  V30 179 N 53.2898 -2.1583 51.2766 0
M  V30 180 H 55.1434 1.4076 51.7777 0
M  V30 181 H 54.0794 1.8037 53.2117 0
M  V30 182 H 54.3756 -0.5559 52.9780 0
M  V30 183 H 52.6689 -0.1597 52.6923 0
M  V30 184 H 53.0812 -0.3722 50.1947 0
M  V30 185 H 54.7512 -0.8610 50.5461 0
M  V30 186 N 46.2773 14.3039 51.2766 0
M  V30 187 C 45.9872 15.3508 52.2254 0
M  V30 188 C 44.8256 16.2043 51.8236 0
M  V30 189 C 43.5426 15.4577 51.6696 0
M  V30 190 N 42.5390 16.4621 51.2766 0
M  V30 191 H 45.7266 14.8514 53.1864 0
M  V30 192 H 46.8623 16.0264 52.3649 0
M  V30 193 H 44.6799 16.9654 52.6201 0
M  V30 194 H 45.0181 16.7589 50.8896 0
M  V30 195 H 43.5684 14.6729 50.8982 0
M  V30 196 H 43.1853 14.9870 52.6028 0
M  V30 197 C 72.2708 41.7243 51.2766 0
M  V30 198 C 71.0444 41.0217 51.7424 0
M  V30 199 C 69.8284 41.7321 51.2766 0
M  V30 200 C 71.0599 39.6074 51.2766 0
M  V30 201 H 72.4609 41.8617 50.2279 0
M  V30 202 H 71.0279 40.9811 52.8542 0
M  V30 203 H 69.7117 41.8315 50.1882 0
M  V30 204 H 70.2768 38.8915 51.4877 0
M  V30 205 C 87.5985 50.5735 51.2766 0
M  V30 206 C 88.8249 51.2762 51.7424 0
M  V30 207 C 90.0409 50.5658 51.2766 0
M  V30 208 C 88.8094 52.6905 51.2766 0
M  V30 209 H 87.4084 50.4362 50.2279 0
M  V30 210 H 88.8414 51.3167 52.8542 0
M  V30 211 H 90.1576 50.4664 50.1882 0
M  V30 212 H 89.5925 53.4064 51.4877 0
M  V30 213 N 78.0655 45.0698 51.2766 0
M  V30 214 C 78.7793 45.3829 52.4903 0
M  V30 215 C 80.1996 45.7883 52.2502 0
M  V30 216 C 80.3530 46.9983 51.3901 0
M  V30 217 N 81.8038 47.2280 51.2766 0
M  V30 218 H 78.2535 46.2455 52.9597 0
M  V30 219 H 78.7960 44.5136 53.1873 0
M  V30 220 H 80.6526 46.0172 53.2388 0
M  V30 221 H 80.7982 44.9725 51.8108 0
M  V30 222 H 79.9395 46.8850 50.3762 0
M  V30 223 H 79.9105 47.9129 51.8232 0
M  V30 224 N 71.0530 32.9242 51.2766 0
M  V30 225 C 71.9870 32.1496 52.0564 0
M  V30 226 C 71.5822 30.7169 52.2070 0
M  V30 227 C 71.4530 29.9790 50.9162 0
M  V30 228 N 71.0530 28.6077 51.2766 0
M  V30 229 H 72.9586 32.1736 51.5121 0
M  V30 230 H 72.1068 32.5697 53.0815 0
M  V30 231 H 72.3672 30.2101 52.8085 0
M  V30 232 H 70.6373 30.6063 52.7655 0
M  V30 233 H 70.6945 30.3937 50.2348 0
M  V30 234 H 72.3973 29.9049 50.3479 0
M  V30 235 N 64.0405 45.0698 51.2766 0
M  V30 236 C 63.8868 46.3529 51.9173 0
M  V30 237 C 62.6537 47.0826 51.4857 0
M  V30 238 C 61.3818 46.3553 51.7699 0
M  V30 239 N 60.3023 47.2280 51.2766 0
M  V30 240 H 63.8024 46.1587 53.0110 0
M  V30 241 H 64.7559 47.0181 51.7080 0
M  V30 242 H 62.6239 48.0445 52.0413 0
M  V30 243 H 62.6741 47.3390 50.4130 0
M  V30 244 H 61.2982 45.3809 51.2647 0
M  V30 245 H 61.1968 46.1829 52.8451 0
M  V30 246 C 90.0340 72.4903 51.2766 0
M  V30 247 C 88.8077 71.7877 51.7424 0
M  V30 248 C 87.5916 72.4981 51.2766 0
M  V30 249 C 88.8232 70.3734 51.2766 0
M  V30 250 H 90.2241 72.6276 50.2279 0
M  V30 251 H 88.7912 71.7471 52.8542 0
M  V30 252 H 87.4750 72.5974 50.1882 0
M  V30 253 H 88.0400 69.6574 51.4877 0
M  V30 254 C 106.5795 83.4487 51.2766 0
M  V30 255 C 106.5749 82.0353 51.7424 0
M  V30 256 C 105.3516 81.3374 51.2766 0
M  V30 257 C 107.8075 81.3416 51.2766 0
M  V30 258 H 106.5556 83.6820 50.2279 0
M  V30 259 H 106.6018 82.0008 52.8542 0
M  V30 260 H 105.2072 81.2861 50.1882 0
M  V30 261 H 108.0359 80.3054 51.4877 0
M  V30 262 N 95.8288 75.8358 51.2766 0
M  V30 263 C 96.3416 76.4970 52.4515 0
M  V30 264 C 97.7912 76.8514 52.3421 0
M  V30 265 C 98.1122 77.7713 51.2115 0
M  V30 266 N 99.5670 77.9940 51.2766 0
M  V30 267 H 95.7668 77.4445 52.5645 0
M  V30 268 H 96.2233 75.8616 53.3593 0
M  V30 269 H 98.0817 77.3619 53.2855 0
M  V30 270 H 98.4341 75.9591 52.2562 0
M  V30 271 H 97.8676 77.3654 50.2180 0
M  V30 272 H 97.6267 78.7604 51.2891 0
M  V30 273 N 88.8163 63.6902 51.2766 0
M  V30 274 C 89.8245 62.9155 51.9578 0
M  V30 275 C 89.4370 61.4828 52.1486 0
M  V30 276 C 89.1777 60.7450 50.8775 0
M  V30 277 N 88.8163 59.3737 51.2766 0
M  V30 278 H 90.7360 62.9396 51.3178 0
M  V30 279 H 90.0475 63.3356 52.9654 0
M  V30 280 H 90.2790 60.9761 52.6674 0
M  V30 281 H 88.5536 61.3722 52.7999 0
M  V30 282 H 88.3540 61.1597 50.2765 0
M  V30 283 H 90.0595 60.6709 50.2165 0
M  V30 284 N 81.8038 75.8358 51.2766 0
M  V30 285 C 81.6983 77.2025 51.7255 0
M  V30 286 C 80.4272 77.8662 51.2979 0
M  V30 287 C 79.1901 77.1992 51.8002 0
M  V30 288 N 78.0655 77.9940 51.2766 0
M  V30 289 H 81.7117 77.1776 52.8392 0
M  V30 290 H 82.5412 77.8222 51.3418 0
M  V30 291 H 80.4398 78.9017 51.7010 0
M  V30 292 H 80.3515 77.9562 50.2011 0
M  V30 293 H 79.0690 76.1599 51.4585 0
M  V30 294 H 79.1014 77.1938 52.9011 0
M  V30 295 C 90.0340 10.9584 51.2766 0
M  V30 296 C 88.8077 10.2557 51.7424 0
M  V30 297 C 87.5916 10.9662 51.2766 0
M  V30 298 C 88.8232 8.8414 51.2766 0
M  V30 299 H 90.2241 11.0957 50.2279 0
M  V30 300 H 88.7912 10.2152 52.8542 0
M  V30 301 H 87.4750 11.0655 50.1882 0
M  V30 302 H 88.0400 8.1255 51.4877 0
M  V30 303 C 107.7973 19.8076 51.2766 0
M  V30 304 C 106.5756 20.5183 51.7424 0
M  V30 305 C 106.5828 21.9266 51.2766 0
M  V30 306 C 105.3585 19.7977 51.2766 0
M  V30 307 H 108.0113 19.7117 50.2279 0
M  V30 308 H 106.5322 20.5123 52.8542 0
M  V30 309 H 106.6105 22.0773 50.1882 0
M  V30 310 H 104.3469 20.1179 51.4877 0
M  V30 311 N 95.8288 14.3039 51.2766 0
M  V30 312 C 96.8805 14.0315 52.2254 0
M  V30 313 C 98.2004 14.6107 51.8236 0
M  V30 314 C 98.1954 16.0952 51.6696 0
M  V30 315 N 99.5670 16.4621 51.2766 0
M  V30 316 H 96.5782 14.5070 53.1864 0
M  V30 317 H 97.0280 12.9359 52.3649 0
M  V30 318 H 98.9324 14.3564 52.6201 0
M  V30 319 H 98.5845 14.1668 50.8896 0
M  V30 320 H 97.5029 16.4652 50.8982 0
M  V30 321 H 97.9664 16.6400 52.6028 0
M  V30 322 N 88.8163 2.1583 51.2766 0
M  V30 323 C 89.8245 1.3836 51.9578 0
M  V30 324 C 89.4370 -0.0491 52.1486 0
M  V30 325 C 89.1777 -0.7869 50.8775 0
M  V30 326 N 88.8163 -2.1583 51.2766 0
M  V30 327 H 90.7360 1.4076 51.3178 0
M  V30 328 H 90.0475 1.8037 52.9654 0
M  V30 329 H 90.2790 -0.5559 52.6674 0
M  V30 330 H 88.5536 -0.1597 52.7999 0
M  V30 331 H 88.3540 -0.3722 50.2765 0
M  V30 332 H 90.0595 -0.8610 50.2165 0
M  V30 333 N 81.8038 14.3039 51.2766 0
M  V30 334 C 81.5999 15.5001 52.0563 0
M  V30 335 C 80.3971 16.2821 51.6312 0
M  V30 336 C 79.1115 15.5311 51.7346 0
M  V30 337 N 78.0655 16.4621 51.2766 0
M  V30 338 H 81.4397 15.1745 53.1096 0
M  V30 339 H 82.4787 16.1821 51.9912 0
M  V30 340 H 80.3242 17.1694 52.2962 0
M  V30 341 H 80.4917 16.6672 50.6017 0
M  V30 342 H 79.0677 14.6259 51.1099 0
M  V30 343 H 78.8521 15.2300 52.7651 0
M  V30 344 C 107.7973 41.7243 51.2766 0
M  V30 345 C 106.5709 41.0217 51.7424 0
M  V30 346 C 105.3549 41.7321 51.2766 0
M  V30 347 C 106.5864 39.6074 51.2766 0
M  V30 348 H 107.9874 41.8617 50.2279 0
M  V30 349 H 106.5545 40.9811 52.8542 0
M  V30 350 H 105.2383 41.8315 50.1882 0
M  V30 351 H 105.8033 38.8915 51.4877 0
M  V30 352 C 125.5606 50.5735 51.2766 0
M  V30 353 C 124.3389 51.2843 51.7424 0
M  V30 354 C 124.3460 52.6926 51.2766 0
M  V30 355 C 123.1218 50.5637 51.2766 0
M  V30 356 H 125.7745 50.4776 50.2279 0
M  V30 357 H 124.2955 51.2783 52.8542 0
M  V30 358 H 124.3738 52.8433 50.1882 0
M  V30 359 H 122.1102 50.8839 51.4877 0
M  V30 360 N 113.5920 45.0698 51.2766 0
M  V30 361 C 114.5021 45.0429 52.3954 0
M  V30 362 C 115.8731 45.5335 52.0509 0
M  V30 363 C 115.9126 46.9410 51.5561 0
M  V30 364 N 117.3303 47.2280 51.2766 0
M  V30 365 H 114.0809 45.7243 53.1695 0
M  V30 366 H 114.6119 44.0124 52.8048 0
M  V30 367 H 116.4872 45.4835 52.9758 0
M  V30 368 H 116.3722 44.8903 51.3065 0
M  V30 369 H 115.3361 47.1100 50.6337 0
M  V30 370 H 115.5689 47.6845 52.2971 0
M  V30 371 N 106.5795 32.9242 51.2766 0
M  V30 372 C 107.6360 32.1496 51.8801 0
M  V30 373 C 107.2640 30.7169 52.0995 0
M  V30 374 C 106.9099 29.9790 50.8515 0
M  V30 375 N 106.5795 28.6077 51.2766 0
M  V30 376 H 108.4969 32.1736 51.1735 0
M  V30 377 H 107.9341 32.5697 52.8682 0
M  V30 378 H 108.1426 30.2101 52.5536 0
M  V30 379 H 106.4320 30.6063 52.8154 0
M  V30 380 H 106.0435 30.3937 50.3140 0
M  V30 381 H 107.7396 29.9049 50.1261 0
M  V30 382 N 99.5670 45.0698 51.2766 0
M  V30 383 C 99.4431 46.4045 51.8092 0
M  V30 384 C 98.1881 47.0962 51.3782 0
M  V30 385 C 96.9339 46.3995 51.7892 0
M  V30 386 N 95.8288 47.2280 51.2766 0
M  V30 387 H 99.4147 46.3073 52.9186 0
M  V30 388 H 100.2990 47.0469 51.4985 0
M  V30 389 H 98.1844 48.1033 51.8480 0
M  V30 390 H 98.1535 47.2575 50.2875 0
M  V30 391 H 96.8269 45.3847 51.3764 0
M  V30 392 H 96.8040 46.3227 52.8834 0
M  V30 393 C 125.5606 72.4903 51.2766 0
M  V30 394 C 124.3342 71.7877 51.7424 0
M  V30 395 C 123.1181 72.4981 51.2766 0
M  V30 396 C 124.3497 70.3734 51.2766 0
M  V30 397 H 125.7506 72.6276 50.2279 0
M  V30 398 H 124.3177 71.7471 52.8542 0
M  V30 399 H 123.0015 72.5974 50.1882 0
M  V30 400 H 123.5665 69.6574 51.4877 0
M  V30 401 C 143.3238 81.3395 51.2766 0
M  V30 402 C 142.1021 82.0502 51.7424 0
M  V30 403 C 142.1093 83.4586 51.2766 0
M  V30 404 C 140.8851 81.3296 51.2766 0
M  V30 405 H 143.5378 81.2436 50.2279 0
M  V30 406 H 142.0588 82.0442 52.8542 0
M  V30 407 H 142.1370 83.6092 50.1882 0
M  V30 408 H 139.8735 81.6498 51.4877 0
M  V30 409 N 131.3553 75.8358 51.2766 0
M  V30 410 C 132.0691 76.1488 52.4903 0
M  V30 411 C 133.4893 76.5542 52.2502 0
M  V30 412 C 133.6427 77.7642 51.3901 0
M  V30 413 N 135.0935 77.9940 51.2766 0
M  V30 414 H 131.5433 77.0115 52.9597 0
M  V30 415 H 132.0858 75.2796 53.1873 0
M  V30 416 H 133.9423 76.7831 53.2388 0
M  V30 417 H 134.0880 75.7385 51.8108 0
M  V30 418 H 133.2293 77.6510 50.3762 0
M  V30 419 H 133.2003 78.6789 51.8232 0
M  V30 420 N 124.3428 63.6902 51.2766 0
M  V30 421 C 125.4321 62.9155 51.8186 0
M  V30 422 C 125.0732 61.4828 52.0590 0
M  V30 423 C 124.6483 60.7450 50.8333 0
M  V30 424 N 124.3428 59.3737 51.2766 0
M  V30 425 H 126.2511 62.9396 51.0639 0
M  V30 426 H 125.7863 63.3356 52.7880 0
M  V30 427 H 125.9764 60.9761 52.4620 0
M  V30 428 H 124.2836 61.3722 52.8213 0
M  V30 429 H 123.7525 61.1597 50.3463 0
M  V30 430 H 125.4351 60.6709 50.0616 0
M  V30 431 N 117.3303 75.8358 51.2766 0
M  V30 432 C 117.2367 77.2231 51.6600 0
M  V30 433 C 115.9534 77.8657 51.2366 0
M  V30 434 C 114.7317 77.2254 51.8065 0
M  V30 435 N 113.5920 77.9940 51.2766 0
M  V30 436 H 117.2820 77.2535 52.7727 0
M  V30 437 H 118.0678 77.8224 51.2221 0
M  V30 438 H 115.9769 78.9199 51.5873 0
M  V30 439 H 115.8463 77.9013 50.1393 0
M  V30 440 H 114.6016 76.1704 51.5204 0
M  V30 441 H 114.6746 77.2746 52.9085 0
M  V30 END ATOM
M  V30 BEGIN BOND
M  V30 1 1 1 2
M  V30 2 1 2 3
M  V30 3 1 2 4
M  V30 4 1 1 5
M  V30 5 1 2 6
M  V30 6 1 3 7
M  V30 7 1 4 8
M  V30 8 1 9 10
M  V30 9 1 10 11
M  V30 10 1 10 12
M  V30 11 1 9 13
M  V30 12 1 10 14
M  V30 13 1 11 15
M  V30 14 1 12 16
M  V30 15 1 17 18
M  V30 16 1 18 19
M  V30 17 1 19 20
M  V30 18 1 20 21
M  V30 19 1 18 22
M  V30 20 1 18 23
M  V30 21 1 19 24
M  V30 22 1 19 25
M  V30 23 1 20 26
M  V30 24 1 20 27
M  V30 25 1 28 29
M  V30 26 1 29 30
M  V30 27 1 30 31
M  V30 28 1 31 32
M  V30 29 1 29 33
M  V30 30 1 29 34
M  V30 31 1 30 35
M  V30 32 1 30 36
M  V30 33 1 31 37
M  V30 34 1 31 38
M  V30 35 1 39 40
M  V30 36 1 40 41
M  V30 37 1 41 42
M  V30 38 1 42 43
M  V30 39 1 40 44
M  V30 40 1 40 45
M  V30 41 1 41 46
M  V30 42 1 41 47
M  V30 43 1 42 48
M  V30 44 1 42 49
M  V30 45 1 50 51
M  V30 46 1 51 52
M  V30 47 1 51 53
M  V30 48 1 50 54
M  V30 49 1 51 55
M  V30 50 1 52 56
M  V30 51 1 53 57
M  V30 52 1 58 59
M  V30 53 1 59 60
M  V30 54 1 59 61
M  V30 55 1 58 62
M  V30 56 1 59 63
M  V30 57 1 60 64
M  V30 58 1 61 65
M  V30 59 1 66 67
M  V30 60 1 67 68
M  V30 61 1 68 69
M  V30 62 1 69 70
M  V30 63 1 67 71
M  V30 64 1 67 72
M  V30 65 1 68 73
M  V30 66 1 68 74
M  V30 67 1 69 75
M  V30 68 1 69 76
M  V30 69 1 77 78
M  V30 70 1 78 79
M  V30 71 1 79 80
M  V30 72 1 80 81
M  V30 73 1 78 82
M  V30 74 1 78 83
M  V30 75 1 79 84
M  V30 76 1 79 85
M  V30 77 1 80 86
M  V30 78 1 80 87
M  V30 79 1 88 89
M  V30 80 1 89 90
M  V30 81 1 90 91
M  V30 82 1 91 92
M  V30 83 1 89 93
M  V30 84 1 89 94
M  V30 85 1 90 95
M  V30 86 1 90 96
M  V30 87 1 91 97
M  V30 88 1 91 98
M  V30 89 1 99 100
M  V30 90 1 100 101
M  V30 91 1 100 102
M  V30 92 1 99 103
M  V30 93 1 100 104
M  V30 94 1 101 105
M  V30 95 1 102 106
M  V30 96 1 107 108
M  V30 97 1 108 109
M  V30 98 1 108 110
M  V30 99 1 107 111
M  V30 100 1 108 112
M  V30 101 1 109 113
M  V30 102 1 110 114
M  V30 103 1 115 116
M  V30 104 1 116 117
M  V30 105 1 117 118
M  V30 106 1 118 119
M  V30 107 1 116 120
M  V30 108 1 116 121
M  V30 109 1 117 122
M  V30 110 1 117 123
M  V30 111 1 118 124
M  V30 112 1 118 125
M  V30 113 1 126 127
M  V30 114 1 127 128
M  V30 115 1 128 129
M  V30 116 1 129 130
M  V30 117 1 127 131
M  V30 118 1 127 132
M  V30 119 1 128 133
M  V30 120 1 128 134
M  V30 121 1 129 135
M  V30 122 1 129 136
M  V30 123 1 137 138
M  V30 124 1 138 139
M  V30 125 1 139 140
M  V30 126 1 140 141
M  V30 127 1 138 142
M  V30 128 1 138 143
M  V30 129 1 139 144
M  V30 130 1 139 145
M  V30 131 1 140 146
M  V30 132 1 140 147
M  V30 133 1 148 149
M  V30 134 1 149 150
M  V30 135 1 149 151
M  V30 136 1 148 152
M  V30 137 1 149 153
M  V30 138 1 150 154
M  V30 139 1 151 155
M  V30 140 1 156 157
M  V30 141 1 157 158
M  V30 142 1 157 159
M  V30 143 1 156 160
M  V30 144 1 157 161
M  V30 145 1 158 162
M  V30 146 1 159 163
M  V30 147 1 164 165
M  V30 148 1 165 166
M  V30 149 1 166 167
M  V30 150 1 167 168
M  V30 151 1 165 169
M  V30 152 1 165 170
M  V30 153 1 166 171
M  V30 154 1 166 172
M  V30 155 1 167 173
M  V30 156 1 167 174
M  V30 157 1 175 176
M  V30 158 1 176 177
M  V30 159 1 177 178
M  V30 160 1 178 179
M  V30 161 1 176 180
M  V30 162 1 176 181
M  V30 163 1 177 182
M  V30 164 1 177 183
M  V30 165 1 178 184
M  V30 166 1 178 185
M  V30 167 1 186 187
M  V30 168 1 187 188
M  V30 169 1 188 189
M  V30 170 1 189 190
M  V30 171 1 187 191
M  V30 172 1 187 192
M  V30 173 1 188 193
M  V30 174 1 188 194
M  V30 175 1 189 195
M  V30 176 1 189 196
M  V30 177 1 197 198
M  V30 178 1 198 199
M  V30 179 1 198 200
M  V30 180 1 197 201
M  V30 181 1 198 202
M  V30 182 1 199 203
M  V30 183 1 200 204
M  V30 184 1 205 206
M  V30 185 1 206 207
M  V30 186 1 206 208
M  V30 187 1 205 209
M  V30 188 1 206 210
M  V30 189 1 207 211
M  V30 190 1 208 212
M  V30 191 1 213 214
M  V30 192 1 214 215
M  V30 193 1 215 216
M  V30 194 1 216 217
M  V30 195 1 214 218
M  V30 196 1 214 219
M  V30 197 1 215 220
M  V30 198 1 215 221
M  V30 199 1 216 222
M  V30 200 1 216 223
M  V30 201 1 224 225
M  V30 202 1 225 226
M  V30 203 1 226 227
M  V30 204 1 227 228
M  V30 205 1 225 229
M  V30 206 1 225 230
M  V30 207 1 226 231
M  V30 208 1 226 232
M  V30 209 1 227 233
M  V30 210 1 227 234
M  V30 211 1 235 236
M  V30 212 1 236 237
M  V30 213 1 237 238
M  V30 214 1 238 239
M  V30 215 1 236 240
M  V30 216 1 236 241
M  V30 217 1 237 242
M  V30 218 1 237 243
M  V30 219 1 238 244
M  V30 220 1 238 245
M  V30 221 1 246 247
M  V30 222 1 247 248
M  V30 223 1 247 249
M  V30 224 1 246 250
M  V30 225 1 247 251
M  V30 226 1 248 252
M  V30 227 1 249 253
M  V30 228 1 254 255
M  V30 229 1 255 256
M  V30 230 1 255 257
M  V30 231 1 254 258
M  V30 232 1 255 259
M  V30 233 1 256 260
M  V30 234 1 257 261
M  V30 235 1 262 263
M  V30 236 1 263 264
M  V30 237 1 264 265
M  V30 238 1 265 266
M  V30 239 1 263 267
M  V30 240 1 263 268
M  V30 241 1 264 269
M  V30 242 1 264 270
M  V30 243 1 265 271
M  V30 244 1 265 272
M  V30 245 1 273 274
M  V30 246 1 274 275
M  V30 247 1 275 276
M  V30 248 1 276 277
M  V30 249 1 274 278
M  V30 250 1 274 279
M  V30 251 1 275 280
M  V30 252 1 275 281
M  V30 253 1 276 282
M  V30 254 1 276 283
M  V30 255 1 284 285
M  V30 256 1 285 286
M  V30 257 1 286 287
M  V30 258 1 287 288
M  V30 259 1 285 289
M  V30 260 1 285 290
M  V30 261 1 286 291
M  V30 262 1 286 292
M  V30 263 1 287 293
M  V30 264 1 287 294
M  V30 265 1 295 296
M  V30 266 1 296 297
M  V30 267 1 296 298
M  V30 268 1 295 299
M  V30 269 1 296 300
M  V30 270 1 297 301
M  V30 271 1 298 302
M  V30 272 1 303 304
M  V30 273 1 304 305
M  V30 274 1 304 306
M  V30 275 1 303 307
M  V30 276 1 304 308
M  V30 277 1 305 309
M  V30 278 1 306 310
M  V30 279 1 311 312
M  V30 280 1 312 313
M  V30 281 1 313 314
M  V30 282 1 314 315
M  V30 283 1 312 316
M  V30 284 1 312 317
M  V30 285 1 313 318
M  V30 286 1 313 319
M  V30 287 1 314 320
M  V30 288 1 314 321
M  V30 289 1 322 323
M  V30 290 1 323 324
M  V30 291 1 324 325
M  V30 292 1 325 326
M  V30 293 1 323 327
M  V30 294 1 323 328
M  V30 295 1 324 329
M  V30 296 1 324 330
M  V30 297 1 325 331
M  V30 298 1 325 332
M  V30 299 1 333 334
M  V30 300 1 334 335
M  V30 301 1 335 336
M  V30 302 1 336 337
M  V30 303 1 334 338
M  V30 304 1 334 339
M  V30 305 1 335 340
M  V30 306 1 335 341
M  V30 307 1 336 342
M  V30 308 1 336 343
M  V30 309 1 344 345
M  V30 310 1 345 346
M  V30 311 1 345 347
M  V30 312 1 344 348
M  V30 313 1 345 349
M  V30 314 1 346 350
M  V30 315 1 347 351
M  V30 316 1 352 353
M  V30 317 1 353 354
M  V30 318 1 353 355
M  V30 319 1 352 356
M  V30 320 1 353 357
M  V30 321 1 354 358
M  V30 322 1 355 359
M  V30 323 1 360 361
M  V30 324 1 361 362
M  V30 325 1 362 363
M  V30 326 1 363 364
M  V30 327 1 361 365
M  V30 328 1 361 366
M  V30 329 1 362 367
M  V30 330 1 362 368
M  V30 331 1 363 369
M  V30 332 1 363 370
M  V30 333 1 371 372
M  V30 334 1 372 373
M  V30 335 1 373 374
M  V30 336 1 374 375
M  V30 337 1 372 376
M  V30 338 1 372 377
M  V30 339 1 373 378
M  V30 340 1 373 379
M  V30 341 1 374 380
M  V30 342 1 374 381
M  V30 343 1 382 383
M  V30 344 1 383 384
M  V30 345 1 384 385
M  V30 346 1 385 386
M  V30 347 1 383 387
M  V30 348 1 383 388
M  V30 349 1 384 389
M  V30 350 1 384 390
M  V30 351 1 385 391
M  V30 352 1 385 392
M  V30 353 1 393 394
M  V30 354 1 394 395
M  V30 355 1 394 396
M  V30 356 1 393 397
M  V30 357 1 394 398
M  V30 358 1 395 399
M  V30 359 1 396 400
M  V30 360 1 401 402
M  V30 361 1 402 403
M  V30 362 1 402 404
M  V30 363 1 401 405
M  V30 364 1 402 406
M  V30 365 1 403 407
M  V30 366 1 404 408
M  V30 367 1 409 410
M  V30 368 1 410 411
M  V30 369 1 411 412
M  V30 370 1 412 413
M  V30 371 1 410 414
M  V30 372 1 410 415
M  V30 373 1 411 416
M  V30 374 1 411 417
M  V30 375 1 412 418
M  V30 376 1 412 419
M  V30 377 1 420 421
M  V30 378 1 421 422
M  V30 379 1 422 423
M  V30 380 1 423 424
M  V30 381 1 421 425
M  V30 382 1 421 426
M  V30 383 1 422 427
M  V30 384 1 422 428
M  V30 385 1 423 429
M  V30 386 1 423 430
M  V30 387 1 431 432
M  V30 388 1 432 433
M  V30 389 1 433 434
M  V30 390 1 434 435
M  V30 391 1 432 436
M  V30 392 1 432 437
M  V30 393 1 433 438
M  V30 394 1 433 439
M  V30 395 1 434 440
M  V30 396 1 434 441
M  V30 397 2 1 17
M  V30 398 2 9 21
M  V30 399 2 4 28
M  V30 400 2 32 107
M  V30 401 2 3 39
M  V30 402 2 43 303
M  V30 403 2 50 66
M  V30 404 2 58 70
M  V30 405 2 53 77
M  V30 406 2 12 81
M  V30 407 2 52 88
M  V30 408 2 92 352
M  V30 409 2 99 115
M  V30 410 2 109 119
M  V30 411 2 102 126
M  V30 412 2 61 130
M  V30 413 2 101 137
M  V30 414 2 141 401
M  V30 415 2 148 164
M  V30 416 2 156 168
M  V30 417 2 151 175
M  V30 418 2 179 254
M  V30 419 2 150 186
M  V30 420 2 11 190
M  V30 421 2 197 213
M  V30 422 2 205 217
M  V30 423 2 200 224
M  V30 424 2 159 228
M  V30 425 2 199 235
M  V30 426 2 60 239
M  V30 427 2 246 262
M  V30 428 2 256 266
M  V30 429 2 249 273
M  V30 430 2 208 277
M  V30 431 2 248 284
M  V30 432 2 110 288
M  V30 433 2 295 311
M  V30 434 2 306 315
M  V30 435 2 298 322
M  V30 436 2 326 403
M  V30 437 2 297 333
M  V30 438 2 158 337
M  V30 439 2 344 360
M  V30 440 2 355 364
M  V30 441 2 347 371
M  V30 442 2 305 375
M  V30 443 2 346 382
M  V30 444 2 207 386
M  V30 445 2 393 409
M  V30 446 2 404 413
M  V30 447 2 396 420
M  V30 448 2 354 424
M  V30 449 2 395 431
M  V30 450 2 257 435
M  V30 END BOND
M  V30 END CTAB
M  END

$$$$
