
     RDKit          3D

  0  0  0  0  0  0  0  0  0  0999 V3000
M  V30 BEGIN CTAB
M  V30 COUNTS 459 462 0 0 0
M  V30 BEGIN ATOM
M  V30 1 C 18.9810 10.9584 51.2766 0
M  V30 2 C 17.7546 10.2557 51.7424 0
M  V30 3 C 16.5386 10.9662 51.2766 0
M  V30 4 C 17.7702 8.8414 51.2766 0
M  V30 5 H 19.1711 11.0957 50.2279 0
M  V30 6 H 17.7382 10.2152 52.8542 0
M  V30 7 H 16.4220 11.0655 50.1882 0
M  V30 8 H 16.9870 8.1255 51.4877 0
M  V30 9 C 34.3088 19.8076 51.2766 0
M  V30 10 C 35.5351 20.5102 51.7424 0
M  V30 11 C 36.7512 19.7998 51.2766 0
M  V30 12 C 35.5196 21.9245 51.2766 0
M  V30 13 H 34.1187 19.6702 50.2279 0
M  V30 14 H 35.5516 20.5508 52.8542 0
M  V30 15 H 36.8678 19.7004 50.1882 0
M  V30 16 H 36.3028 22.6405 51.4877 0
M  V30 17 N 24.7758 14.3039 51.2766 0
M  V30 18 C 25.4895 14.6169 52.4903 0
M  V30 19 C 26.9098 15.0223 52.2502 0
M  V30 20 C 27.0632 16.2323 51.3901 0
M  V30 21 N 28.5140 16.4621 51.2766 0
M  V30 22 H 24.9637 15.4796 52.9597 0
M  V30 23 H 25.5063 13.7477 53.1873 0
M  V30 24 H 27.3628 15.2512 53.2388 0
M  V30 25 H 27.5084 14.2066 51.8108 0
M  V30 26 H 26.6497 16.1190 50.3762 0
M  V30 27 H 26.6207 17.1470 51.8232 0
M  V30 28 N 17.7633 2.1583 51.2766 0
M  V30 29 C 18.0795 1.3836 52.4515 0
M  V30 30 C 17.6616 -0.0491 52.3421 0
M  V30 31 C 18.2978 -0.7869 51.2115 0
M  V30 32 N 17.7633 -2.1583 51.2766 0
M  V30 33 H 19.1875 1.4076 52.5645 0
M  V30 34 H 17.5884 1.8037 53.3593 0
M  V30 35 H 17.9585 -0.5559 53.2855 0
M  V30 36 H 16.5674 -0.1597 52.2562 0
M  V30 37 H 18.0686 -0.3722 50.2180 0
M  V30 38 H 19.3971 -0.8610 51.2891 0
M  V30 39 H 18.5279 -2.8382 51.0503 0
M  V30 40 H 17.4909 -2.3905 52.2790 0
M  V30 41 N 10.7507 14.3039 51.2766 0
M  V30 42 C 10.3190 15.1054 52.3954 0
M  V30 43 C 9.2086 16.0475 52.0509 0
M  V30 44 C 7.9700 15.3778 51.5561 0
M  V30 45 N 7.0125 16.4621 51.2766 0
M  V30 46 H 9.9395 14.4000 53.1695 0
M  V30 47 H 11.1565 15.7158 52.8048 0
M  V30 48 H 8.9449 16.6042 52.9758 0
M  V30 49 H 9.5161 16.8013 51.3065 0
M  V30 50 H 8.1119 14.7942 50.6337 0
M  V30 51 H 7.4979 14.7084 52.2971 0
M  V30 52 H 6.0533 16.1605 51.5718 0
M  V30 53 H 7.2284 17.3005 51.8957 0
M  V30 54 C 36.7443 41.7243 51.2766 0
M  V30 55 C 35.5179 41.0217 51.7424 0
M  V30 56 C 34.3019 41.7321 51.2766 0
M  V30 57 C 35.5334 39.6074 51.2766 0
M  V30 58 H 36.9344 41.8617 50.2279 0
M  V30 59 H 35.5014 40.9811 52.8542 0
M  V30 60 H 34.1852 41.8315 50.1882 0
M  V30 61 H 34.7503 38.8915 51.4877 0
M  V30 62 C 52.0720 50.5735 51.2766 0
M  V30 63 C 53.2984 51.2762 51.7424 0
M  V30 64 C 54.5144 50.5658 51.2766 0
M  V30 65 C 53.2829 52.6905 51.2766 0
M  V30 66 H 51.8819 50.4362 50.2279 0
M  V30 67 H 53.3148 51.3167 52.8542 0
M  V30 68 H 54.6311 50.4664 50.1882 0
M  V30 69 H 54.0660 53.4064 51.4877 0
M  V30 70 N 42.5390 45.0698 51.2766 0
M  V30 71 C 43.0518 45.7310 52.4515 0
M  V30 72 C 44.5015 46.0855 52.3421 0
M  V30 73 C 44.8224 47.0053 51.2115 0
M  V30 74 N 46.2773 47.2280 51.2766 0
M  V30 75 H 42.4770 46.6785 52.5645 0
M  V30 76 H 42.9335 45.0957 53.3593 0
M  V30 77 H 44.7919 46.5959 53.2855 0
M  V30 78 H 45.1443 45.1932 52.2562 0
M  V30 79 H 44.5778 46.5995 50.2180 0
M  V30 80 H 44.3369 47.9944 51.2891 0
M  V30 81 N 35.5265 32.9242 51.2766 0
M  V30 82 C 36.1472 32.1496 52.3231 0
M  V30 83 C 35.7153 30.7169 52.3302 0
M  V30 84 C 36.0238 29.9790 51.0701 0
M  V30 85 N 35.5265 28.6077 51.2766 0
M  V30 86 H 37.2447 32.1736 52.1338 0
M  V30 87 H 35.9185 32.5697 53.3295 0
M  V30 88 H 36.2551 30.2101 53.1589 0
M  V30 89 H 34.6383 30.6063 52.5418 0
M  V30 90 H 35.5357 30.3937 50.1749 0
M  V30 91 H 37.1035 29.9049 50.8490 0
M  V30 92 N 28.5140 45.0698 51.2766 0
M  V30 93 C 28.3101 46.2660 52.0563 0
M  V30 94 C 27.1073 47.0481 51.6312 0
M  V30 95 C 25.8217 46.2971 51.7346 0
M  V30 96 N 24.7758 47.2280 51.2766 0
M  V30 97 H 28.1499 45.9405 53.1096 0
M  V30 98 H 29.1889 46.9480 51.9912 0
M  V30 99 H 27.0344 47.9354 52.2962 0
M  V30 100 H 27.2019 47.4331 50.6017 0
M  V30 101 H 25.7780 45.3918 51.1099 0
M  V30 102 H 25.5623 45.9960 52.7651 0
M  V30 103 H 23.9239 47.1124 51.8759 0
M  V30 104 H 25.0867 48.2311 51.4497 0
M  V30 105 C 54.5075 72.4903 51.2766 0
M  V30 106 C 53.2812 71.7877 51.7424 0
M  V30 107 C 52.0651 72.4981 51.2766 0
M  V30 108 C 53.2967 70.3734 51.2766 0
M  V30 109 H 54.6976 72.6276 50.2279 0
M  V30 110 H 53.2647 71.7471 52.8542 0
M  V30 111 H 51.9485 72.5974 50.1882 0
M  V30 112 H 52.5135 69.6574 51.4877 0
M  V30 113 O 71.0845 84.3490 52.1004 0
M  V30 114 C 71.0530 83.4487 51.2766 0
M  V30 115 C 71.0483 82.0353 51.7424 0
M  V30 116 C 69.8251 81.3374 51.2766 0
M  V30 117 C 72.2809 81.3416 51.2766 0
M  V30 118 H 71.0291 83.6820 50.2279 0
M  V30 119 H 71.0752 82.0008 52.8542 0
M  V30 120 H 69.6807 81.2861 50.1882 0
M  V30 121 H 72.5094 80.3054 51.4877 0
M  V30 122 N 60.3023 75.8358 51.2766 0
M  V30 123 C 60.6628 76.7606 52.3231 0
M  V30 124 C 62.1195 77.1029 52.3302 0
M  V30 125 C 62.6043 77.7390 51.0701 0
M  V30 126 N 64.0405 77.9940 51.2766 0
M  V30 127 H 60.0933 77.6991 52.1338 0
M  V30 128 H 60.4133 76.3525 53.3295 0
M  V30 129 H 62.2885 77.8238 53.1589 0
M  V30 130 H 62.7538 76.2255 52.5418 0
M  V30 131 H 62.4891 77.1090 50.1749 0
M  V30 132 H 62.1286 78.7111 50.8490 0
M  V30 133 N 53.2898 63.6902 51.2766 0
M  V30 134 C 54.1048 62.9155 52.1800 0
M  V30 135 C 53.6829 61.4828 52.2722 0
M  V30 136 C 53.7365 60.7450 50.9760 0
M  V30 137 N 53.2898 59.3737 51.2766 0
M  V30 138 H 55.1434 62.9396 51.7777 0
M  V30 139 H 54.0794 63.3356 53.2117 0
M  V30 140 H 54.3756 60.9761 52.9780 0
M  V30 141 H 52.6689 61.3722 52.6923 0
M  V30 142 H 53.0812 61.1597 50.1947 0
M  V30 143 H 54.7512 60.6709 50.5461 0
M  V30 144 N 46.2773 75.8358 51.2766 0
M  V30 145 C 46.1534 77.1705 51.8092 0
M  V30 146 C 44.8984 77.8622 51.3782 0
M  V30 147 C 43.6441 77.1655 51.7892 0
M  V30 148 N 42.5390 77.9940 51.2766 0
M  V30 149 H 46.1249 77.0732 52.9186 0
M  V30 150 H 47.0093 77.8128 51.4985 0
M  V30 151 H 44.8946 78.8693 51.8480 0
M  V30 152 H 44.8638 78.0234 50.2875 0
M  V30 153 H 43.5372 76.1507 51.3764 0
M  V30 154 H 43.5142 77.0886 52.8834 0
M  V30 155 H 41.7668 78.0164 51.9847 0
M  V30 156 H 42.8558 79.0071 51.1987 0
M  V30 157 C 54.5075 10.9584 51.2766 0
M  V30 158 C 53.2812 10.2557 51.7424 0
M  V30 159 C 52.0651 10.9662 51.2766 0
M  V30 160 C 53.2967 8.8414 51.2766 0
M  V30 161 H 54.6976 11.0957 50.2279 0
M  V30 162 H 53.2647 10.2152 52.8542 0
M  V30 163 H 51.9485 11.0655 50.1882 0
M  V30 164 H 52.5135 8.1255 51.4877 0
M  V30 165 C 69.8353 19.8076 51.2766 0
M  V30 166 C 71.0616 20.5102 51.7424 0
M  V30 167 C 72.2777 19.7998 51.2766 0
M  V30 168 C 71.0461 21.9245 51.2766 0
M  V30 169 H 69.6452 19.6702 50.2279 0
M  V30 170 H 71.0781 20.5508 52.8542 0
M  V30 171 H 72.3943 19.7004 50.1882 0
M  V30 172 H 71.8293 22.6405 51.4877 0
M  V30 173 N 60.3023 14.3039 51.2766 0
M  V30 174 C 61.2123 14.2769 52.3954 0
M  V30 175 C 62.5834 14.7676 52.0509 0
M  V30 176 C 62.6228 16.1750 51.5561 0
M  V30 177 N 64.0405 16.4621 51.2766 0
M  V30 178 H 60.7911 14.9584 53.1695 0
M  V30 179 H 61.3222 13.2465 52.8048 0
M  V30 180 H 63.1974 14.7176 52.9758 0
M  V30 181 H 63.0824 14.1244 51.3065 0
M  V30 182 H 62.0464 16.3440 50.6337 0
M  V30 183 H 62.2791 16.9186 52.2971 0
M  V30 184 N 53.2898 2.1583 51.2766 0
M  V30 185 C 54.1048 1.3836 52.1800 0
M  V30 186 C 53.6829 -0.0491 52.2722 0
M  V30 187 C 53.7365 -0.7869 50.9760 0
M  V30 188 N 53.2898 -2.1583 51.2766 0
M  V30 189 H 55.1434 1.4076 51.7777 0
M  V30 190 H 54.0794 1.8037 53.2117 0
M  V30 191 H 54.3756 -0.5559 52.9780 0
M  V30 192 H 52.6689 -0.1597 52.6923 0
M  V30 193 H 53.0812 -0.3722 50.1947 0
M  V30 194 H 54.7512 -0.8610 50.5461 0
M  V30 195 H 53.8684 -2.8382 50.7279 0
M  V30 196 H 53.5021 -2.3905 52.2934 0
M  V30 197 N 46.2773 14.3039 51.2766 0
M  V30 198 C 45.9872 15.3508 52.2254 0
M  V30 199 C 44.8256 16.2043 51.8236 0
M  V30 200 C 43.5426 15.4577 51.6696 0
M  V30 201 N 42.5390 16.4621 51.2766 0
M  V30 202 H 45.7266 14.8514 53.1864 0
M  V30 203 H 46.8623 16.0264 52.3649 0
M  V30 204 H 44.6799 16.9654 52.6201 0
M  V30 205 H 45.0181 16.7589 50.8896 0
M  V30 206 H 43.5684 14.6729 50.8982 0
M  V30 207 H 43.1853 14.9870 52.6028 0
M  V30 208 C 72.2708 41.7243 51.2766 0
M  V30 209 C 71.0444 41.0217 51.7424 0
M  V30 210 C 69.8284 41.7321 51.2766 0
M  V30 211 C 71.0599 39.6074 51.2766 0
M  V30 212 H 72.4609 41.8617 50.2279 0
M  V30 213 H 71.0279 40.9811 52.8542 0
M  V30 214 H 69.7117 41.8315 50.1882 0
M  V30 215 H 70.2768 38.8915 51.4877 0
M  V30 216 C 87.5985 50.5735 51.2766 0
M  V30 217 C 88.8249 51.2762 51.7424 0
M  V30 218 C 90.0409 50.5658 51.2766 0
M  V30 219 C 88.8094 52.6905 51.2766 0
M  V30 220 H 87.4084 50.4362 50.2279 0
M  V30 221 H 88.8414 51.3167 52.8542 0
M  V30 222 H 90.1576 50.4664 50.1882 0
M  V30 223 H 89.5925 53.4064 51.4877 0
M  V30 224 N 78.0655 45.0698 51.2766 0
M  V30 225 C 78.7793 45.3829 52.4903 0
M  V30 226 C 80.1996 45.7883 52.2502 0
M  V30 227 C 80.3530 46.9983 51.3901 0
M  V30 228 N 81.8038 47.2280 51.2766 0
M  V30 229 H 78.2535 46.2455 52.9597 0
M  V30 230 H 78.7960 44.5136 53.1873 0
M  V30 231 H 80.6526 46.0172 53.2388 0
M  V30 232 H 80.7982 44.9725 51.8108 0
M  V30 233 H 79.9395 46.8850 50.3762 0
M  V30 234 H 79.9105 47.9129 51.8232 0
M  V30 235 N 71.0530 32.9242 51.2766 0
M  V30 236 C 71.9870 32.1496 52.0564 0
M  V30 237 C 71.5822 30.7169 52.2070 0
M  V30 238 C 71.4530 29.9790 50.9162 0
M  V30 239 N 71.0530 28.6077 51.2766 0
M  V30 240 H 72.9586 32.1736 51.5121 0
M  V30 241 H 72.1068 32.5697 53.0815 0
M  V30 242 H 72.3672 30.2101 52.8085 0
M  V30 243 H 70.6373 30.6063 52.7655 0
M  V30 244 H 70.6945 30.3937 50.2348 0
M  V30 245 H 72.3973 29.9049 50.3479 0
M  V30 246 N 64.0405 45.0698 51.2766 0
M  V30 247 C 63.8868 46.3529 51.9173 0
M  V30 248 C 62.6537 47.0826 51.4857 0
M  V30 249 C 61.3818 46.3553 51.7699 0
M  V30 250 N 60.3023 47.2280 51.2766 0
M  V30 251 H 63.8024 46.1587 53.0110 0
M  V30 252 H 64.7559 47.0181 51.7080 0
M  V30 253 H 62.6239 48.0445 52.0413 0
M  V30 254 H 62.6741 47.3390 50.4130 0
M  V30 255 H 61.2982 45.3809 51.2647 0
M  V30 256 H 61.1968 46.1829 52.8451 0
M  V30 257 C 90.0340 72.4903 51.2766 0
M  V30 258 C 88.8077 71.7877 51.7424 0
M  V30 259 C 87.5916 72.4981 51.2766 0
M  V30 260 C 88.8232 70.3734 51.2766 0
M  V30 261 H 90.2241 72.6276 50.2279 0
M  V30 262 H 88.7912 71.7471 52.8542 0
M  V30 263 H 87.4750 72.5974 50.1882 0
M  V30 264 H 88.0400 69.6574 51.4877 0
M  V30 265 O 106.6110 84.3490 52.1004 0
M  V30 266 C 106.5795 83.4487 51.2766 0
M  V30 267 C 106.5749 82.0353 51.7424 0
M  V30 268 C 105.3516 81.3374 51.2766 0
M  V30 269 C 107.8075 81.3416 51.2766 0
M  V30 270 H 106.5556 83.6820 50.2279 0
M  V30 271 H 106.6018 82.0008 52.8542 0
M  V30 272 H 105.2072 81.2861 50.1882 0
M  V30 273 H 108.0359 80.3054 51.4877 0
M  V30 274 N 95.8288 75.8358 51.2766 0
M  V30 275 C 96.3416 76.4970 52.4515 0
M  V30 276 C 97.7912 76.8514 52.3421 0
M  V30 277 C 98.1122 77.7713 51.2115 0
M  V30 278 N 99.5670 77.9940 51.2766 0
M  V30 279 H 95.7668 77.4445 52.5645 0
M  V30 280 H 96.2233 75.8616 53.3593 0
M  V30 281 H 98.0817 77.3619 53.2855 0
M  V30 282 H 98.4341 75.9591 52.2562 0
M  V30 283 H 97.8676 77.3654 50.2180 0
M  V30 284 H 97.6267 78.7604 51.2891 0
M  V30 285 N 88.8163 63.6902 51.2766 0
M  V30 286 C 89.8245 62.9155 51.9578 0
M  V30 287 C 89.4370 61.4828 52.1486 0
M  V30 288 C 89.1777 60.7450 50.8775 0
M  V30 289 N 88.8163 59.3737 51.2766 0
M  V30 290 H 90.7360 62.9396 51.3178 0
M  V30 291 H 90.0475 63.3356 52.9654 0
M  V30 292 H 90.2790 60.9761 52.6674 0
M  V30 293 H 88.5536 61.3722 52.7999 0
M  V30 294 H 88.3540 61.1597 50.2765 0
M  V30 295 H 90.0595 60.6709 50.2165 0
M  V30 296 N 81.8038 75.8358 51.2766 0
M  V30 297 C 81.6983 77.2025 51.7255 0
M  V30 298 C 80.4272 77.8662 51.2979 0
M  V30 299 C 79.1901 77.1992 51.8002 0
M  V30 300 N 78.0655 77.9940 51.2766 0
M  V30 301 H 81.7117 77.1776 52.8392 0
M  V30 302 H 82.5412 77.8222 51.3418 0
M  V30 303 H 80.4398 78.9017 51.7010 0
M  V30 304 H 80.3515 77.9562 50.2011 0
M  V30 305 H 79.0690 76.1599 51.4585 0
M  V30 306 H 79.1014 77.1938 52.9011 0
M  V30 307 C 90.0340 10.9584 51.2766 0
M  V30 308 C 88.8077 10.2557 51.7424 0
M  V30 309 C 87.5916 10.9662 51.2766 0
M  V30 310 C 88.8232 8.8414 51.2766 0
M  V30 311 H 90.2241 11.0957 50.2279 0
M  V30 312 H 88.7912 10.2152 52.8542 0
M  V30 313 H 87.4750 11.0655 50.1882 0
M  V30 314 H 88.0400 8.1255 51.4877 0
M  V30 315 O 108.5613 19.3302 52.1004 0
M  V30 316 C 107.7973 19.8076 51.2766 0
M  V30 317 C 106.5756 20.5183 51.7424 0
M  V30 318 C 106.5828 21.9266 51.2766 0
M  V30 319 C 105.3585 19.7977 51.2766 0
M  V30 320 H 108.0113 19.7117 50.2279 0
M  V30 321 H 106.5322 20.5123 52.8542 0
M  V30 322 H 106.6105 22.0773 50.1882 0
M  V30 323 H 104.3469 20.1179 51.4877 0
M  V30 324 N 95.8288 14.3039 51.2766 0
M  V30 325 C 96.8805 14.0315 52.2254 0
M  V30 326 C 98.2004 14.6107 51.8236 0
M  V30 327 C 98.1954 16.0952 51.6696 0
M  V30 328 N 99.5670 16.4621 51.2766 0
M  V30 329 H 96.5782 14.5070 53.1864 0
M  V30 330 H 97.0280 12.9359 52.3649 0
M  V30 331 H 98.9324 14.3564 52.6201 0
M  V30 332 H 98.5845 14.1668 50.8896 0
M  V30 333 H 97.5029 16.4652 50.8982 0
M  V30 334 H 97.9664 16.6400 52.6028 0
M  V30 335 N 88.8163 2.1583 51.2766 0
M  V30 336 C 89.8245 1.3836 51.9578 0
M  V30 337 C 89.4370 -0.0491 52.1486 0
M  V30 338 C 89.1777 -0.7869 50.8775 0
M  V30 339 N 88.8163 -2.1583 51.2766 0
M  V30 340 H 90.7360 1.4076 51.3178 0
M  V30 341 H 90.0475 1.8037 52.9654 0
M  V30 342 H 90.2790 -0.5559 52.6674 0
M  V30 343 H 88.5536 -0.1597 52.7999 0
M  V30 344 H 88.3540 -0.3722 50.2765 0
M  V30 345 H 90.0595 -0.8610 50.2165 0
M  V30 346 H 89.2461 -2.8382 50.6050 0
M  V30 347 H 89.2666 -2.3905 52.2126 0
M  V30 348 N 81.8038 14.3039 51.2766 0
M  V30 349 C 81.5999 15.5001 52.0563 0
M  V30 350 C 80.3971 16.2821 51.6312 0
M  V30 351 C 79.1115 15.5311 51.7346 0
M  V30 352 N 78.0655 16.4621 51.2766 0
M  V30 353 H 81.4397 15.1745 53.1096 0
M  V30 354 H 82.4787 16.1821 51.9912 0
M  V30 355 H 80.3242 17.1694 52.2962 0
M  V30 356 H 80.4917 16.6672 50.6017 0
M  V30 357 H 79.0677 14.6259 51.1099 0
M  V30 358 H 78.8521 15.2300 52.7651 0
M  V30 359 C 107.7973 41.7243 51.2766 0
M  V30 360 C 106.5709 41.0217 51.7424 0
M  V30 361 C 105.3549 41.7321 51.2766 0
M  V30 362 C 106.5864 39.6074 51.2766 0
M  V30 363 H 107.9874 41.8617 50.2279 0
M  V30 364 H 106.5545 40.9811 52.8542 0
M  V30 365 H 105.2383 41.8315 50.1882 0
M  V30 366 H 105.8033 38.8915 51.4877 0
M  V30 367 O 126.3246 50.0962 52.1004 0
M  V30 368 C 125.5606 50.5735 51.2766 0
M  V30 369 C 124.3389 51.2843 51.7424 0
M  V30 370 C 124.3460 52.6926 51.2766 0
M  V30 371 C 123.1218 50.5637 51.2766 0
M  V30 372 H 125.7745 50.4776 50.2279 0
M  V30 373 H 124.2955 51.2783 52.8542 0
M  V30 374 H 124.3738 52.8433 50.1882 0
M  V30 375 H 122.1102 50.8839 51.4877 0
M  V30 376 N 113.5920 45.0698 51.2766 0
M  V30 377 C 114.5021 45.0429 52.3954 0
M  V30 378 C 115.8731 45.5335 52.0509 0
M  V30 379 C 115.9126 46.9410 51.5561 0
M  V30 380 N 117.3303 47.2280 51.2766 0
M  V30 381 H 114.0809 45.7243 53.1695 0
M  V30 382 H 114.6119 44.0124 52.8048 0
M  V30 383 H 116.4872 45.4835 52.9758 0
M  V30 384 H 116.3722 44.8903 51.3065 0
M  V30 385 H 115.3361 47.1100 50.6337 0
M  V30 386 H 115.5689 47.6845 52.2971 0
M  V30 387 N 106.5795 32.9242 51.2766 0
M  V30 388 C 107.6360 32.1496 51.8801 0
M  V30 389 C 107.2640 30.7169 52.0995 0
M  V30 390 C 106.9099 29.9790 50.8515 0
M  V30 391 N 106.5795 28.6077 51.2766 0
M  V30 392 H 108.4969 32.1736 51.1735 0
M  V30 393 H 107.9341 32.5697 52.8682 0
M  V30 394 H 108.1426 30.2101 52.5536 0
M  V30 395 H 106.4320 30.6063 52.8154 0
M  V30 396 H 106.0435 30.3937 50.3140 0
M  V30 397 H 107.7396 29.9049 50.1261 0
M  V30 398 N 99.5670 45.0698 51.2766 0
M  V30 399 C 99.4431 46.4045 51.8092 0
M  V30 400 C 98.1881 47.0962 51.3782 0
M  V30 401 C 96.9339 46.3995 51.7892 0
M  V30 402 N 95.8288 47.2280 51.2766 0
M  V30 403 H 99.4147 46.3073 52.9186 0
M  V30 404 H 100.2990 47.0469 51.4985 0
M  V30 405 H 98.1844 48.1033 51.8480 0
M  V30 406 H 98.1535 47.2575 50.2875 0
M  V30 407 H 96.8269 45.3847 51.3764 0
M  V30 408 H 96.8040 46.3227 52.8834 0
M  V30 409 C 125.5606 72.4903 51.2766 0
M  V30 410 C 124.3342 71.7877 51.7424 0
M  V30 411 C 123.1181 72.4981 51.2766 0
M  V30 412 C 124.3497 70.3734 51.2766 0
M  V30 413 H 125.7506 72.6276 50.2279 0
M  V30 414 H 124.3177 71.7471 52.8542 0
M  V30 415 H 123.0015 72.5974 50.1882 0
M  V30 416 H 123.5665 69.6574 51.4877 0
M  V30 417 O 144.0878 80.8621 52.1004 0
M  V30 418 C 143.3238 81.3395 51.2766 0
M  V30 419 C 142.1021 82.0502 51.7424 0
M  V30 420 C 142.1093 83.4586 51.2766 0
M  V30 421 O 142.0865 84.4229 52.0224 0
M  V30 422 C 140.8851 81.3296 51.2766 0
M  V30 423 H 143.5378 81.2436 50.2279 0
M  V30 424 H 142.0588 82.0442 52.8542 0
M  V30 425 H 142.1370 83.6092 50.1882 0
M  V30 426 H 139.8735 81.6498 51.4877 0
M  V30 427 N 131.3553 75.8358 51.2766 0
M  V30 428 C 132.0691 76.1488 52.4903 0
M  V30 429 C 133.4893 76.5542 52.2502 0
M  V30 430 C 133.6427 77.7642 51.3901 0
M  V30 431 N 135.0935 77.9940 51.2766 0
M  V30 432 H 131.5433 77.0115 52.9597 0
M  V30 433 H 132.0858 75.2796 53.1873 0
M  V30 434 H 133.9423 76.7831 53.2388 0
M  V30 435 H 134.0880 75.7385 51.8108 0
M  V30 436 H 133.2293 77.6510 50.3762 0
M  V30 437 H 133.2003 78.6789 51.8232 0
M  V30 438 N 124.3428 63.6902 51.2766 0
M  V30 439 C 125.4321 62.9155 51.8186 0
M  V30 440 C 125.0732 61.4828 52.0590 0
M  V30 441 C 124.6483 60.7450 50.8333 0
M  V30 442 N 124.3428 59.3737 51.2766 0
M  V30 443 H 126.2511 62.9396 51.0639 0
M  V30 444 H 125.7863 63.3356 52.7880 0
M  V30 445 H 125.9764 60.9761 52.4620 0
M  V30 446 H 124.2836 61.3722 52.8213 0
M  V30 447 H 123.7525 61.1597 50.3463 0
M  V30 448 H 125.4351 60.6709 50.0616 0
M  V30 449 N 117.3303 75.8358 51.2766 0
M  V30 450 C 117.2367 77.2231 51.6600 0
M  V30 451 C 115.9534 77.8657 51.2366 0
M  V30 452 C 114.7317 77.2254 51.8065 0
M  V30 453 N 113.5920 77.9940 51.2766 0
M  V30 454 H 117.2820 77.2535 52.7727 0
M  V30 455 H 118.0678 77.8224 51.2221 0
M  V30 456 H 115.9769 78.9199 51.5873 0
M  V30 457 H 115.8463 77.9013 50.1393 0
M  V30 458 H 114.6016 76.1704 51.5204 0
M  V30 459 H 114.6746 77.2746 52.9085 0
M  V30 END ATOM
M  V30 BEGIN BOND
M  V30 1 1 1 2
M  V30 2 1 2 3
M  V30 3 1 2 4
M  V30 4 1 1 5
M  V30 5 1 2 6
M  V30 6 1 3 7
M  V30 7 1 4 8
M  V30 8 1 9 10
M  V30 9 1 10 11
M  V30 10 1 10 12
M  V30 11 1 9 13
M  V30 12 1 10 14
M  V30 13 1 11 15
M  V30 14 1 12 16
M  V30 15 1 17 18
M  V30 16 1 18 19
M  V30 17 1 19 20
M  V30 18 1 20 21
M  V30 19 1 18 22
M  V30 20 1 18 23
M  V30 21 1 19 24
M  V30 22 1 19 25
M  V30 23 1 20 26
M  V30 24 1 20 27
M  V30 25 1 28 29
M  V30 26 1 29 30
M  V30 27 1 30 31
M  V30 28 1 31 32
M  V30 29 1 29 33
M  V30 30 1 29 34
M  V30 31 1 30 35
M  V30 32 1 30 36
M  V30 33 1 31 37
M  V30 34 1 31 38
M  V30 35 1 32 39
M  V30 36 1 32 40
M  V30 37 1 41 42
M  V30 38 1 42 43
M  V30 39 1 43 44
M  V30 40 1 44 45
M  V30 41 1 42 46
M  V30 42 1 42 47
M  V30 43 1 43 48
M  V30 44 1 43 49
M  V30 45 1 44 50
M  V30 46 1 44 51
M  V30 47 1 45 52
M  V30 48 1 45 53
M  V30 49 1 54 55
M  V30 50 1 55 56
M  V30 51 1 55 57
M  V30 52 1 54 58
M  V30 53 1 55 59
M  V30 54 1 56 60
M  V30 55 1 57 61
M  V30 56 1 62 63
M  V30 57 1 63 64
M  V30 58 1 63 65
M  V30 59 1 62 66
M  V30 60 1 63 67
M  V30 61 1 64 68
M  V30 62 1 65 69
M  V30 63 1 70 71
M  V30 64 1 71 72
M  V30 65 1 72 73
M  V30 66 1 73 74
M  V30 67 1 71 75
M  V30 68 1 71 76
M  V30 69 1 72 77
M  V30 70 1 72 78
M  V30 71 1 73 79
M  V30 72 1 73 80
M  V30 73 1 81 82
M  V30 74 1 82 83
M  V30 75 1 83 84
M  V30 76 1 84 85
M  V30 77 1 82 86
M  V30 78 1 82 87
M  V30 79 1 83 88
M  V30 80 1 83 89
M  V30 81 1 84 90
M  V30 82 1 84 91
M  V30 83 1 92 93
M  V30 84 1 93 94
M  V30 85 1 94 95
M  V30 86 1 95 96
M  V30 87 1 93 97
M  V30 88 1 93 98
M  V30 89 1 94 99
M  V30 90 1 94 100
M  V30 91 1 95 101
M  V30 92 1 95 102
M  V30 93 1 96 103
M  V30 94 1 96 104
M  V30 95 1 105 106
M  V30 96 1 106 107
M  V30 97 1 106 108
M  V30 98 1 105 109
M  V30 99 1 106 110
M  V30 100 1 107 111
M  V30 101 1 108 112
M  V30 102 2 113 114
M  V30 103 1 114 115
M  V30 104 1 115 116
M  V30 105 1 115 117
M  V30 106 1 114 118
M  V30 107 1 115 119
M  V30 108 1 116 120
M  V30 109 1 117 121
M  V30 110 1 122 123
M  V30 111 1 123 124
M  V30 112 1 124 125
M  V30 113 1 125 126
M  V30 114 1 123 127
M  V30 115 1 123 128
M  V30 116 1 124 129
M  V30 117 1 124 130
M  V30 118 1 125 131
M  V30 119 1 125 132
M  V30 120 1 133 134
M  V30 121 1 134 135
M  V30 122 1 135 136
M  V30 123 1 136 137
M  V30 124 1 134 138
M  V30 125 1 134 139
M  V30 126 1 135 140
M  V30 127 1 135 141
M  V30 128 1 136 142
M  V30 129 1 136 143
M  V30 130 1 144 145
M  V30 131 1 145 146
M  V30 132 1 146 147
M  V30 133 1 147 148
M  V30 134 1 145 149
M  V30 135 1 145 150
M  V30 136 1 146 151
M  V30 137 1 146 152
M  V30 138 1 147 153
M  V30 139 1 147 154
M  V30 140 1 148 155
M  V30 141 1 148 156
M  V30 142 1 157 158
M  V30 143 1 158 159
M  V30 144 1 158 160
M  V30 145 1 157 161
M  V30 146 1 158 162
M  V30 147 1 159 163
M  V30 148 1 160 164
M  V30 149 1 165 166
M  V30 150 1 166 167
M  V30 151 1 166 168
M  V30 152 1 165 169
M  V30 153 1 166 170
M  V30 154 1 167 171
M  V30 155 1 168 172
M  V30 156 1 173 174
M  V30 157 1 174 175
M  V30 158 1 175 176
M  V30 159 1 176 177
M  V30 160 1 174 178
M  V30 161 1 174 179
M  V30 162 1 175 180
M  V30 163 1 175 181
M  V30 164 1 176 182
M  V30 165 1 176 183
M  V30 166 1 184 185
M  V30 167 1 185 186
M  V30 168 1 186 187
M  V30 169 1 187 188
M  V30 170 1 185 189
M  V30 171 1 185 190
M  V30 172 1 186 191
M  V30 173 1 186 192
M  V30 174 1 187 193
M  V30 175 1 187 194
M  V30 176 1 188 195
M  V30 177 1 188 196
M  V30 178 1 197 198
M  V30 179 1 198 199
M  V30 180 1 199 200
M  V30 181 1 200 201
M  V30 182 1 198 202
M  V30 183 1 198 203
M  V30 184 1 199 204
M  V30 185 1 199 205
M  V30 186 1 200 206
M  V30 187 1 200 207
M  V30 188 1 208 209
M  V30 189 1 209 210
M  V30 190 1 209 211
M  V30 191 1 208 212
M  V30 192 1 209 213
M  V30 193 1 210 214
M  V30 194 1 211 215
M  V30 195 1 216 217
M  V30 196 1 217 218
M  V30 197 1 217 219
M  V30 198 1 216 220
M  V30 199 1 217 221
M  V30 200 1 218 222
M  V30 201 1 219 223
M  V30 202 1 224 225
M  V30 203 1 225 226
M  V30 204 1 226 227
M  V30 205 1 227 228
M  V30 206 1 225 229
M  V30 207 1 225 230
M  V30 208 1 226 231
M  V30 209 1 226 232
M  V30 210 1 227 233
M  V30 211 1 227 234
M  V30 212 1 235 236
M  V30 213 1 236 237
M  V30 214 1 237 238
M  V30 215 1 238 239
M  V30 216 1 236 240
M  V30 217 1 236 241
M  V30 218 1 237 242
M  V30 219 1 237 243
M  V30 220 1 238 244
M  V30 221 1 238 245
M  V30 222 1 246 247
M  V30 223 1 247 248
M  V30 224 1 248 249
M  V30 225 1 249 250
M  V30 226 1 247 251
M  V30 227 1 247 252
M  V30 228 1 248 253
M  V30 229 1 248 254
M  V30 230 1 249 255
M  V30 231 1 249 256
M  V30 232 1 257 258
M  V30 233 1 258 259
M  V30 234 1 258 260
M  V30 235 1 257 261
M  V30 236 1 258 262
M  V30 237 1 259 263
M  V30 238 1 260 264
M  V30 239 2 265 266
M  V30 240 1 266 267
M  V30 241 1 267 268
M  V30 242 1 267 269
M  V30 243 1 266 270
M  V30 244 1 267 271
M  V30 245 1 268 272
M  V30 246 1 269 273
M  V30 247 1 274 275
M  V30 248 1 275 276
M  V30 249 1 276 277
M  V30 250 1 277 278
M  V30 251 1 275 279
M  V30 252 1 275 280
M  V30 253 1 276 281
M  V30 254 1 276 282
M  V30 255 1 277 283
M  V30 256 1 277 284
M  V30 257 1 285 286
M  V30 258 1 286 287
M  V30 259 1 287 288
M  V30 260 1 288 289
M  V30 261 1 286 290
M  V30 262 1 286 291
M  V30 263 1 287 292
M  V30 264 1 287 293
M  V30 265 1 288 294
M  V30 266 1 288 295
M  V30 267 1 296 297
M  V30 268 1 297 298
M  V30 269 1 298 299
M  V30 270 1 299 300
M  V30 271 1 297 301
M  V30 272 1 297 302
M  V30 273 1 298 303
M  V30 274 1 298 304
M  V30 275 1 299 305
M  V30 276 1 299 306
M  V30 277 1 307 308
M  V30 278 1 308 309
M  V30 279 1 308 310
M  V30 280 1 307 311
M  V30 281 1 308 312
M  V30 282 1 309 313
M  V30 283 1 310 314
M  V30 284 2 315 316
M  V30 285 1 316 317
M  V30 286 1 317 318
M  V30 287 1 317 319
M  V30 288 1 316 320
M  V30 289 1 317 321
M  V30 290 1 318 322
M  V30 291 1 319 323
M  V30 292 1 324 325
M  V30 293 1 325 326
M  V30 294 1 326 327
M  V30 295 1 327 328
M  V30 296 1 325 329
M  V30 297 1 325 330
M  V30 298 1 326 331
M  V30 299 1 326 332
M  V30 300 1 327 333
M  V30 301 1 327 334
M  V30 302 1 335 336
M  V30 303 1 336 337
M  V30 304 1 337 338
M  V30 305 1 338 339
M  V30 306 1 336 340
M  V30 307 1 336 341
M  V30 308 1 337 342
M  V30 309 1 337 343
M  V30 310 1 338 344
M  V30 311 1 338 345
M  V30 312 1 339 346
M  V30 313 1 339 347
M  V30 314 1 348 349
M  V30 315 1 349 350
M  V30 316 1 350 351
M  V30 317 1 351 352
M  V30 318 1 349 353
M  V30 319 1 349 354
M  V30 320 1 350 355
M  V30 321 1 350 356
M  V30 322 1 351 357
M  V30 323 1 351 358
M  V30 324 1 359 360
M  V30 325 1 360 361
M  V30 326 1 360 362
M  V30 327 1 359 363
M  V30 328 1 360 364
M  V30 329 1 361 365
M  V30 330 1 362 366
M  V30 331 2 367 368
M  V30 332 1 368 369
M  V30 333 1 369 370
M  V30 334 1 369 371
M  V30 335 1 368 372
M  V30 336 1 369 373
M  V30 337 1 370 374
M  V30 338 1 371 375
M  V30 339 1 376 377
M  V30 340 1 377 378
M  V30 341 1 378 379
M  V30 342 1 379 380
M  V30 343 1 377 381
M  V30 344 1 377 382
M  V30 345 1 378 383
M  V30 346 1 378 384
M  V30 347 1 379 385
M  V30 348 1 379 386
M  V30 349 1 387 388
M  V30 350 1 388 389
M  V30 351 1 389 390
M  V30 352 1 390 391
M  V30 353 1 388 392
M  V30 354 1 388 393
M  V30 355 1 389 394
M  V30 356 1 389 395
M  V30 357 1 390 396
M  V30 358 1 390 397
M  V30 359 1 398 399
M  V30 360 1 399 400
M  V30 361 1 400 401
M  V30 362 1 401 402
M  V30 363 1 399 403
M  V30 364 1 399 404
M  V30 365 1 400 405
M  V30 366 1 400 406
M  V30 367 1 401 407
M  V30 368 1 401 408
M  V30 369 1 409 410
M  V30 370 1 410 411
M  V30 371 1 410 412
M  V30 372 1 409 413
M  V30 373 1 410 414
M  V30 374 1 411 415
M  V30 375 1 412 416
M  V30 376 2 417 418
M  V30 377 1 418 419
M  V30 378 1 419 420
M  V30 379 2 420 421
M  V30 380 1 419 422
M  V30 381 1 418 423
M  V30 382 1 419 424
M  V30 383 1 420 425
M  V30 384 1 422 426
M  V30 385 1 427 428
M  V30 386 1 428 429
M  V30 387 1 429 430
M  V30 388 1 430 431
M  V30 389 1 428 432
M  V30 390 1 428 433
M  V30 391 1 429 434
M  V30 392 1 429 435
M  V30 393 1 430 436
M  V30 394 1 430 437
M  V30 395 1 438 439
M  V30 396 1 439 440
M  V30 397 1 440 441
M  V30 398 1 441 442
M  V30 399 1 439 443
M  V30 400 1 439 444
M  V30 401 1 440 445
M  V30 402 1 440 446
M  V30 403 1 441 447
M  V30 404 1 441 448
M  V30 405 1 449 450
M  V30 406 1 450 451
M  V30 407 1 451 452
M  V30 408 1 452 453
M  V30 409 1 450 454
M  V30 410 1 450 455
M  V30 411 1 451 456
M  V30 412 1 451 457
M  V30 413 1 452 458
M  V30 414 1 452 459
M  V30 415 2 1 17
M  V30 416 2 9 21
M  V30 417 2 4 28
M  V30 418 2 3 41
M  V30 419 2 54 70
M  V30 420 2 62 74
M  V30 421 2 57 81
M  V30 422 2 12 85
M  V30 423 2 56 92
M  V30 424 2 105 122
M  V30 425 2 116 126
M  V30 426 2 108 133
M  V30 427 2 65 137
M  V30 428 2 107 144
M  V30 429 2 157 173
M  V30 430 2 165 177
M  V30 431 2 160 184
M  V30 432 2 159 197
M  V30 433 2 11 201
M  V30 434 2 208 224
M  V30 435 2 216 228
M  V30 436 2 211 235
M  V30 437 2 168 239
M  V30 438 2 210 246
M  V30 439 2 64 250
M  V30 440 2 257 274
M  V30 441 2 268 278
M  V30 442 2 260 285
M  V30 443 2 219 289
M  V30 444 2 259 296
M  V30 445 2 117 300
M  V30 446 2 307 324
M  V30 447 2 319 328
M  V30 448 2 310 335
M  V30 449 2 309 348
M  V30 450 2 167 352
M  V30 451 2 359 376
M  V30 452 2 371 380
M  V30 453 2 362 387
M  V30 454 2 318 391
M  V30 455 2 361 398
M  V30 456 2 218 402
M  V30 457 2 409 427
M  V30 458 2 422 431
M  V30 459 2 412 438
M  V30 460 2 370 442
M  V30 461 2 411 449
M  V30 462 2 269 453
M  V30 END BOND
M  V30 END CTAB
M  END

$$$$
