
     RDKit          3D

  0  0  0  0  0  0  0  0  0  0999 V3000
M  V30 BEGIN CTAB
M  V30 COUNTS 297 300 0 0 0
M  V30 BEGIN ATOM
M  V30 1 C 19.2048 18.2818 19.4282 0
M  V30 2 C 18.2632 18.2940 18.2851 0
M  V30 3 C 18.3604 16.9421 17.6190 0
M  V30 4 O 17.3473 16.2785 17.5701 0
M  V30 5 C 18.6945 19.3646 17.3569 0
M  V30 6 C 16.8676 18.5388 18.7233 0
M  V30 7 O 16.2963 19.5124 18.2877 0
M  V30 8 H 19.3480 19.1280 20.0943 0
M  V30 9 H 19.2494 16.5418 17.1962 0
M  V30 10 H 18.1692 19.5892 16.4255 0
M  V30 11 H 16.3335 17.9016 19.4054 0
M  V30 12 N 34.4054 18.2818 18.2818 0
M  V30 13 C 35.1801 19.0794 19.2007 0
M  V30 14 C 36.6128 18.6557 19.2847 0
M  V30 15 C 37.3506 18.7342 17.9898 0
M  V30 16 N 38.7219 18.2818 18.2818 0
M  V30 17 H 35.1560 20.1255 18.8184 0
M  V30 18 H 34.7600 19.0340 20.2318 0
M  V30 19 H 37.1195 19.3347 20.0038 0
M  V30 20 H 36.7234 17.6338 19.6852 0
M  V30 21 H 36.9359 18.0942 17.1961 0
M  V30 22 H 37.4247 19.7571 17.5796 0
M  V30 23 N 18.2818 34.4054 18.2818 0
M  V30 24 C 19.2007 35.1801 19.0794 0
M  V30 25 C 19.2847 36.6128 18.6557 0
M  V30 26 C 17.9898 37.3506 18.7342 0
M  V30 27 N 18.2818 38.7219 18.2818 0
M  V30 28 H 18.8184 35.1560 20.1255 0
M  V30 29 H 20.2318 34.7600 19.0340 0
M  V30 30 H 20.0038 37.1195 19.3347 0
M  V30 31 H 19.6852 36.7234 17.6338 0
M  V30 32 H 17.1961 36.9359 18.0942 0
M  V30 33 H 17.5796 37.4247 19.7571 0
M  V30 34 C 18.2818 53.9225 19.4282 0
M  V30 35 C 18.2940 54.8642 18.2851 0
M  V30 36 C 16.9421 54.7669 17.6190 0
M  V30 37 O 16.2785 55.7801 17.5701 0
M  V30 38 C 19.3646 54.4328 17.3569 0
M  V30 39 C 18.5388 56.2598 18.7233 0
M  V30 40 H 19.1280 53.7794 20.0943 0
M  V30 41 H 16.5418 53.8779 17.1962 0
M  V30 42 H 19.5892 54.9581 16.4255 0
M  V30 43 H 17.9016 56.7938 19.4054 0
M  V30 44 N 34.4054 54.8455 18.2818 0
M  V30 45 C 35.1801 55.9698 18.7470 0
M  V30 46 C 36.6128 55.6284 19.0117 0
M  V30 47 C 37.3506 55.1196 17.8183 0
M  V30 48 N 38.7219 54.8455 18.2818 0
M  V30 49 H 35.1560 56.7345 17.9373 0
M  V30 50 H 34.7600 56.3903 19.6895 0
M  V30 51 H 37.1195 56.5573 19.3511 0
M  V30 52 H 36.7234 54.8935 19.8269 0
M  V30 53 H 36.9359 54.1921 17.3947 0
M  V30 54 H 37.4247 55.8510 16.9939 0
M  V30 55 N 18.2818 70.9691 18.2818 0
M  V30 56 C 19.2007 71.7437 19.0794 0
M  V30 57 C 19.2847 73.1764 18.6557 0
M  V30 58 C 17.9898 73.9143 18.7342 0
M  V30 59 N 18.2818 75.2856 18.2818 0
M  V30 60 H 18.8184 71.7197 20.1255 0
M  V30 61 H 20.2318 71.3236 19.0340 0
M  V30 62 H 20.0038 73.6832 19.3347 0
M  V30 63 H 19.6852 73.2870 17.6338 0
M  V30 64 H 17.1961 73.4996 18.0942 0
M  V30 65 H 17.5796 73.9884 19.7571 0
M  V30 66 C 18.2818 90.4862 19.4282 0
M  V30 67 C 18.2940 91.4278 18.2851 0
M  V30 68 C 16.9421 91.3306 17.6190 0
M  V30 69 O 16.2785 92.3437 17.5701 0
M  V30 70 C 19.3646 90.9965 17.3569 0
M  V30 71 C 18.5388 92.8235 18.7233 0
M  V30 72 H 19.1280 90.3430 20.0943 0
M  V30 73 H 16.5418 90.4416 17.1962 0
M  V30 74 H 19.5892 91.5218 16.4255 0
M  V30 75 H 17.9016 93.3575 19.4054 0
M  V30 76 N 34.4054 91.4092 18.2818 0
M  V30 77 C 35.1801 92.5824 18.6040 0
M  V30 78 C 36.6128 92.2766 18.9089 0
M  V30 79 C 37.3506 91.6236 17.7879 0
M  V30 80 N 38.7219 91.4092 18.2818 0
M  V30 81 H 35.1560 93.2408 17.7057 0
M  V30 82 H 34.7600 93.1167 19.4870 0
M  V30 83 H 37.1195 93.2404 19.1305 0
M  V30 84 H 36.7234 91.6484 19.8090 0
M  V30 85 H 36.9359 90.6508 17.4825 0
M  V30 86 H 37.4247 92.2471 16.8792 0
M  V30 87 N 18.2818 107.5328 18.2818 0
M  V30 88 C 19.2007 108.3074 19.0794 0
M  V30 89 C 19.2847 109.7401 18.6557 0
M  V30 90 C 17.9898 110.4780 18.7342 0
M  V30 91 N 18.2818 111.8493 18.2818 0
M  V30 92 H 18.8184 108.2834 20.1255 0
M  V30 93 H 20.2318 107.8873 19.0340 0
M  V30 94 H 20.0038 110.2469 19.3347 0
M  V30 95 H 19.6852 109.8507 17.6338 0
M  V30 96 H 17.1961 110.0632 18.0942 0
M  V30 97 H 17.5796 110.5521 19.7571 0
M  V30 98 H 17.7443 112.5293 18.8709 0
M  V30 99 H 19.3025 112.0815 18.4746 0
M  V30 100 C 53.9225 18.2818 19.4282 0
M  V30 101 C 54.8642 18.2696 18.2851 0
M  V30 102 C 54.7669 19.6216 17.6190 0
M  V30 103 C 54.4328 17.1990 17.3569 0
M  V30 104 O 53.4540 16.5420 17.6417 0
M  V30 105 C 56.2598 18.0249 18.7233 0
M  V30 106 H 53.7794 17.4357 20.0943 0
M  V30 107 H 53.8779 20.0219 17.1962 0
M  V30 108 H 54.9581 16.9744 16.4255 0
M  V30 109 H 56.7938 18.6621 19.4054 0
M  V30 110 N 70.9691 18.2818 18.2818 0
M  V30 111 C 71.7437 19.0794 19.2007 0
M  V30 112 C 73.1764 18.6557 19.2847 0
M  V30 113 C 73.9143 18.7342 17.9898 0
M  V30 114 N 75.2856 18.2818 18.2818 0
M  V30 115 H 71.7197 20.1255 18.8184 0
M  V30 116 H 71.3236 19.0340 20.2318 0
M  V30 117 H 73.6832 19.3347 20.0038 0
M  V30 118 H 73.2870 17.6338 19.6852 0
M  V30 119 H 73.4996 18.0942 17.1961 0
M  V30 120 H 73.9884 19.7571 17.5796 0
M  V30 121 N 54.8455 34.4054 18.2818 0
M  V30 122 C 56.0240 35.1801 18.5842 0
M  V30 123 C 55.9097 36.6128 18.1677 0
M  V30 124 C 54.7866 37.3506 18.8171 0
M  V30 125 N 54.8455 38.7219 18.2818 0
M  V30 126 H 56.1499 35.1560 19.6908 0
M  V30 127 H 56.9260 34.7600 18.0826 0
M  V30 128 H 56.8565 37.1195 18.4535 0
M  V30 129 H 55.8109 36.7234 17.0746 0
M  V30 130 H 53.7905 36.9359 18.5995 0
M  V30 131 H 54.8771 37.4247 19.9154 0
M  V30 132 C 53.9225 54.8455 19.4282 0
M  V30 133 C 54.8642 54.8333 18.2851 0
M  V30 134 C 54.7669 56.1852 17.6190 0
M  V30 135 C 54.4328 53.7627 17.3569 0
M  V30 136 C 56.2598 54.5886 18.7233 0
M  V30 137 H 53.7794 53.9993 20.0943 0
M  V30 138 H 53.8779 56.5855 17.1962 0
M  V30 139 H 54.9581 53.5381 16.4255 0
M  V30 140 H 56.7938 55.2258 19.4054 0
M  V30 141 N 70.9691 54.8455 18.2818 0
M  V30 142 C 71.7437 55.9698 18.7470 0
M  V30 143 C 73.1764 55.6284 19.0117 0
M  V30 144 C 73.9143 55.1196 17.8183 0
M  V30 145 N 75.2856 54.8455 18.2818 0
M  V30 146 H 71.7197 56.7345 17.9373 0
M  V30 147 H 71.3236 56.3903 19.6895 0
M  V30 148 H 73.6832 56.5573 19.3511 0
M  V30 149 H 73.2870 54.8935 19.8269 0
M  V30 150 H 73.4996 54.1921 17.3947 0
M  V30 151 H 73.9884 55.8510 16.9939 0
M  V30 152 N 54.8455 70.9691 18.2818 0
M  V30 153 C 56.0240 71.7437 18.5842 0
M  V30 154 C 55.9097 73.1764 18.1677 0
M  V30 155 C 54.7866 73.9143 18.8171 0
M  V30 156 N 54.8455 75.2856 18.2818 0
M  V30 157 H 56.1499 71.7197 19.6908 0
M  V30 158 H 56.9260 71.3236 18.0826 0
M  V30 159 H 56.8565 73.6832 18.4535 0
M  V30 160 H 55.8109 73.2870 17.0746 0
M  V30 161 H 53.7905 73.4996 18.5995 0
M  V30 162 H 54.8771 73.9884 19.9154 0
M  V30 163 C 53.9225 91.4092 19.4282 0
M  V30 164 C 54.8642 91.3970 18.2851 0
M  V30 165 C 54.7669 92.7489 17.6190 0
M  V30 166 C 54.4328 90.3264 17.3569 0
M  V30 167 C 56.2598 91.1523 18.7233 0
M  V30 168 H 53.7794 90.5630 20.0943 0
M  V30 169 H 53.8779 93.1492 17.1962 0
M  V30 170 H 54.9581 90.1018 16.4255 0
M  V30 171 H 56.7938 91.7894 19.4054 0
M  V30 172 N 70.9691 91.4092 18.2818 0
M  V30 173 C 71.7437 92.5824 18.6040 0
M  V30 174 C 73.1764 92.2766 18.9089 0
M  V30 175 C 73.9143 91.6236 17.7879 0
M  V30 176 N 75.2856 91.4092 18.2818 0
M  V30 177 H 71.7197 93.2408 17.7057 0
M  V30 178 H 71.3236 93.1167 19.4870 0
M  V30 179 H 73.6832 93.2404 19.1305 0
M  V30 180 H 73.2870 91.6484 19.8090 0
M  V30 181 H 73.4996 90.6508 17.4825 0
M  V30 182 H 73.9884 92.2471 16.8792 0
M  V30 183 N 54.8455 107.5328 18.2818 0
M  V30 184 C 56.0240 108.3074 18.5842 0
M  V30 185 C 55.9097 109.7401 18.1677 0
M  V30 186 C 54.7866 110.4780 18.8171 0
M  V30 187 N 54.8455 111.8493 18.2818 0
M  V30 188 H 56.1499 108.2834 19.6908 0
M  V30 189 H 56.9260 107.8873 18.0826 0
M  V30 190 H 56.8565 110.2469 18.4535 0
M  V30 191 H 55.8109 109.8507 17.0746 0
M  V30 192 H 53.7905 110.0632 18.5995 0
M  V30 193 H 54.8771 110.5521 19.9154 0
M  V30 194 H 54.6282 112.5293 19.0491 0
M  V30 195 H 55.8446 112.0815 17.9978 0
M  V30 196 C 90.4862 18.2818 19.4282 0
M  V30 197 C 91.4278 18.2696 18.2851 0
M  V30 198 C 91.3306 19.6216 17.6190 0
M  V30 199 C 90.9965 17.1990 17.3569 0
M  V30 200 O 90.0177 16.5420 17.6417 0
M  V30 201 C 92.8235 18.0249 18.7233 0
M  V30 202 H 90.3430 17.4357 20.0943 0
M  V30 203 H 90.4416 20.0219 17.1962 0
M  V30 204 H 91.5218 16.9744 16.4255 0
M  V30 205 H 93.3575 18.6621 19.4054 0
M  V30 206 N 107.5328 18.2818 18.2818 0
M  V30 207 C 108.3074 19.0794 19.2007 0
M  V30 208 C 109.7401 18.6557 19.2847 0
M  V30 209 C 110.4780 18.7342 17.9898 0
M  V30 210 N 111.8493 18.2818 18.2818 0
M  V30 211 H 108.2834 20.1255 18.8184 0
M  V30 212 H 107.8873 19.0340 20.2318 0
M  V30 213 H 110.2469 19.3347 20.0038 0
M  V30 214 H 109.8507 17.6338 19.6852 0
M  V30 215 H 110.0632 18.0942 17.1961 0
M  V30 216 H 110.5521 19.7571 17.5796 0
M  V30 217 H 112.5293 18.8709 17.7443 0
M  V30 218 H 112.0815 18.4746 19.3025 0
M  V30 219 N 91.4092 34.4054 18.2818 0
M  V30 220 C 92.6161 35.1801 18.4357 0
M  V30 221 C 92.4510 36.6128 18.0366 0
M  V30 222 C 91.4172 37.3506 18.8202 0
M  V30 223 N 91.4092 38.7219 18.2818 0
M  V30 224 H 92.8783 35.1560 19.5182 0
M  V30 225 H 93.4488 34.7600 17.8261 0
M  V30 226 H 93.4260 37.1195 18.2027 0
M  V30 227 H 92.2174 36.7234 16.9642 0
M  V30 228 H 90.4017 36.9359 18.7279 0
M  V30 229 H 91.6432 37.4247 19.8989 0
M  V30 230 C 90.4862 54.8455 19.4282 0
M  V30 231 C 91.4278 54.8333 18.2851 0
M  V30 232 C 91.3306 56.1852 17.6190 0
M  V30 233 C 90.9965 53.7627 17.3569 0
M  V30 234 C 92.8235 54.5886 18.7233 0
M  V30 235 H 90.3430 53.9993 20.0943 0
M  V30 236 H 90.4416 56.5855 17.1962 0
M  V30 237 H 91.5218 53.5381 16.4255 0
M  V30 238 H 93.3575 55.2258 19.4054 0
M  V30 239 N 107.5328 54.8455 18.2818 0
M  V30 240 C 108.3074 55.9698 18.7470 0
M  V30 241 C 109.7401 55.6284 19.0117 0
M  V30 242 C 110.4780 55.1196 17.8183 0
M  V30 243 N 111.8493 54.8455 18.2818 0
M  V30 244 H 108.2834 56.7345 17.9373 0
M  V30 245 H 107.8873 56.3903 19.6895 0
M  V30 246 H 110.2469 56.5573 19.3511 0
M  V30 247 H 109.8507 54.8935 19.8269 0
M  V30 248 H 110.0632 54.1921 17.3947 0
M  V30 249 H 110.5521 55.8510 16.9939 0
M  V30 250 H 112.5293 55.1320 17.5377 0
M  V30 251 H 112.0815 55.4743 19.1085 0
M  V30 252 N 91.4092 70.9691 18.2818 0
M  V30 253 C 92.6161 71.7437 18.4357 0
M  V30 254 C 92.4510 73.1764 18.0366 0
M  V30 255 C 91.4172 73.9143 18.8202 0
M  V30 256 N 91.4092 75.2856 18.2818 0
M  V30 257 H 92.8783 71.7197 19.5182 0
M  V30 258 H 93.4488 71.3236 17.8261 0
M  V30 259 H 93.4260 73.6832 18.2027 0
M  V30 260 H 92.2174 73.2870 16.9642 0
M  V30 261 H 90.4017 73.4996 18.7279 0
M  V30 262 H 91.6432 73.9884 19.8989 0
M  V30 263 C 90.4862 91.4092 19.4282 0
M  V30 264 C 91.4278 91.3970 18.2851 0
M  V30 265 C 91.3306 92.7489 17.6190 0
M  V30 266 C 90.9965 90.3264 17.3569 0
M  V30 267 C 92.8235 91.1523 18.7233 0
M  V30 268 H 90.3430 90.5630 20.0943 0
M  V30 269 H 90.4416 93.1492 17.1962 0
M  V30 270 H 91.5218 90.1018 16.4255 0
M  V30 271 H 93.3575 91.7894 19.4054 0
M  V30 272 N 107.5328 91.4092 18.2818 0
M  V30 273 C 108.3074 92.5824 18.6040 0
M  V30 274 C 109.7401 92.2766 18.9089 0
M  V30 275 C 110.4780 91.6236 17.7879 0
M  V30 276 N 111.8493 91.4092 18.2818 0
M  V30 277 H 108.2834 93.2408 17.7057 0
M  V30 278 H 107.8873 93.1167 19.4870 0
M  V30 279 H 110.2469 93.2404 19.1305 0
M  V30 280 H 109.8507 91.6484 19.8090 0
M  V30 281 H 110.0632 90.6508 17.4825 0
M  V30 282 H 110.5521 92.2471 16.8792 0
M  V30 283 H 112.5293 91.6011 17.5079 0
M  V30 284 H 112.0815 92.1357 19.0241 0
M  V30 285 N 91.4092 107.5328 18.2818 0
M  V30 286 C 92.6161 108.3074 18.4357 0
M  V30 287 C 92.4510 109.7401 18.0366 0
M  V30 288 C 91.4172 110.4780 18.8202 0
M  V30 289 N 91.4092 111.8493 18.2818 0
M  V30 290 H 92.8783 108.2834 19.5182 0
M  V30 291 H 93.4488 107.8873 17.8261 0
M  V30 292 H 93.4260 110.2469 18.2027 0
M  V30 293 H 92.2174 109.8507 16.9642 0
M  V30 294 H 90.4017 110.0632 18.7279 0
M  V30 295 H 91.6432 110.5521 19.8989 0
M  V30 296 H 91.2887 112.5293 19.0701 0
M  V30 297 H 92.3653 112.0815 17.8761 0
M  V30 END ATOM
M  V30 BEGIN BOND
M  V30 1 1 1 2
M  V30 2 1 2 3
M  V30 3 2 3 4
M  V30 4 1 2 5
M  V30 5 1 2 6
M  V30 6 2 6 7
M  V30 7 1 1 8
M  V30 8 1 3 9
M  V30 9 1 5 10
M  V30 10 1 6 11
M  V30 11 1 12 13
M  V30 12 1 13 14
M  V30 13 1 14 15
M  V30 14 1 15 16
M  V30 15 1 13 17
M  V30 16 1 13 18
M  V30 17 1 14 19
M  V30 18 1 14 20
M  V30 19 1 15 21
M  V30 20 1 15 22
M  V30 21 1 23 24
M  V30 22 1 24 25
M  V30 23 1 25 26
M  V30 24 1 26 27
M  V30 25 1 24 28
M  V30 26 1 24 29
M  V30 27 1 25 30
M  V30 28 1 25 31
M  V30 29 1 26 32
M  V30 30 1 26 33
M  V30 31 1 34 35
M  V30 32 1 35 36
M  V30 33 2 36 37
M  V30 34 1 35 38
M  V30 35 1 35 39
M  V30 36 1 34 40
M  V30 37 1 36 41
M  V30 38 1 38 42
M  V30 39 1 39 43
M  V30 40 1 44 45
M  V30 41 1 45 46
M  V30 42 1 46 47
M  V30 43 1 47 48
M  V30 44 1 45 49
M  V30 45 1 45 50
M  V30 46 1 46 51
M  V30 47 1 46 52
M  V30 48 1 47 53
M  V30 49 1 47 54
M  V30 50 1 55 56
M  V30 51 1 56 57
M  V30 52 1 57 58
M  V30 53 1 58 59
M  V30 54 1 56 60
M  V30 55 1 56 61
M  V30 56 1 57 62
M  V30 57 1 57 63
M  V30 58 1 58 64
M  V30 59 1 58 65
M  V30 60 1 66 67
M  V30 61 1 67 68
M  V30 62 2 68 69
M  V30 63 1 67 70
M  V30 64 1 67 71
M  V30 65 1 66 72
M  V30 66 1 68 73
M  V30 67 1 70 74
M  V30 68 1 71 75
M  V30 69 1 76 77
M  V30 70 1 77 78
M  V30 71 1 78 79
M  V30 72 1 79 80
M  V30 73 1 77 81
M  V30 74 1 77 82
M  V30 75 1 78 83
M  V30 76 1 78 84
M  V30 77 1 79 85
M  V30 78 1 79 86
M  V30 79 1 87 88
M  V30 80 1 88 89
M  V30 81 1 89 90
M  V30 82 1 90 91
M  V30 83 1 88 92
M  V30 84 1 88 93
M  V30 85 1 89 94
M  V30 86 1 89 95
M  V30 87 1 90 96
M  V30 88 1 90 97
M  V30 89 1 91 98
M  V30 90 1 91 99
M  V30 91 1 100 101
M  V30 92 1 101 102
M  V30 93 1 101 103
M  V30 94 2 103 104
M  V30 95 1 101 105
M  V30 96 1 100 106
M  V30 97 1 102 107
M  V30 98 1 103 108
M  V30 99 1 105 109
M  V30 100 1 110 111
M  V30 101 1 111 112
M  V30 102 1 112 113
M  V30 103 1 113 114
M  V30 104 1 111 115
M  V30 105 1 111 116
M  V30 106 1 112 117
M  V30 107 1 112 118
M  V30 108 1 113 119
M  V30 109 1 113 120
M  V30 110 1 121 122
M  V30 111 1 122 123
M  V30 112 1 123 124
M  V30 113 1 124 125
M  V30 114 1 122 126
M  V30 115 1 122 127
M  V30 116 1 123 128
M  V30 117 1 123 129
M  V30 118 1 124 130
M  V30 119 1 124 131
M  V30 120 1 132 133
M  V30 121 1 133 134
M  V30 122 1 133 135
M  V30 123 1 133 136
M  V30 124 1 132 137
M  V30 125 1 134 138
M  V30 126 1 135 139
M  V30 127 1 136 140
M  V30 128 1 141 142
M  V30 129 1 142 143
M  V30 130 1 143 144
M  V30 131 1 144 145
M  V30 132 1 142 146
M  V30 133 1 142 147
M  V30 134 1 143 148
M  V30 135 1 143 149
M  V30 136 1 144 150
M  V30 137 1 144 151
M  V30 138 1 152 153
M  V30 139 1 153 154
M  V30 140 1 154 155
M  V30 141 1 155 156
M  V30 142 1 153 157
M  V30 143 1 153 158
M  V30 144 1 154 159
M  V30 145 1 154 160
M  V30 146 1 155 161
M  V30 147 1 155 162
M  V30 148 1 163 164
M  V30 149 1 164 165
M  V30 150 1 164 166
M  V30 151 1 164 167
M  V30 152 1 163 168
M  V30 153 1 165 169
M  V30 154 1 166 170
M  V30 155 1 167 171
M  V30 156 1 172 173
M  V30 157 1 173 174
M  V30 158 1 174 175
M  V30 159 1 175 176
M  V30 160 1 173 177
M  V30 161 1 173 178
M  V30 162 1 174 179
M  V30 163 1 174 180
M  V30 164 1 175 181
M  V30 165 1 175 182
M  V30 166 1 183 184
M  V30 167 1 184 185
M  V30 168 1 185 186
M  V30 169 1 186 187
M  V30 170 1 184 188
M  V30 171 1 184 189
M  V30 172 1 185 190
M  V30 173 1 185 191
M  V30 174 1 186 192
M  V30 175 1 186 193
M  V30 176 1 187 194
M  V30 177 1 187 195
M  V30 178 1 196 197
M  V30 179 1 197 198
M  V30 180 1 197 199
M  V30 181 2 199 200
M  V30 182 1 197 201
M  V30 183 1 196 202
M  V30 184 1 198 203
M  V30 185 1 199 204
M  V30 186 1 201 205
M  V30 187 1 206 207
M  V30 188 1 207 208
M  V30 189 1 208 209
M  V30 190 1 209 210
M  V30 191 1 207 211
M  V30 192 1 207 212
M  V30 193 1 208 213
M  V30 194 1 208 214
M  V30 195 1 209 215
M  V30 196 1 209 216
M  V30 197 1 210 217
M  V30 198 1 210 218
M  V30 199 1 219 220
M  V30 200 1 220 221
M  V30 201 1 221 222
M  V30 202 1 222 223
M  V30 203 1 220 224
M  V30 204 1 220 225
M  V30 205 1 221 226
M  V30 206 1 221 227
M  V30 207 1 222 228
M  V30 208 1 222 229
M  V30 209 1 230 231
M  V30 210 1 231 232
M  V30 211 1 231 233
M  V30 212 1 231 234
M  V30 213 1 230 235
M  V30 214 1 232 236
M  V30 215 1 233 237
M  V30 216 1 234 238
M  V30 217 1 239 240
M  V30 218 1 240 241
M  V30 219 1 241 242
M  V30 220 1 242 243
M  V30 221 1 240 244
M  V30 222 1 240 245
M  V30 223 1 241 246
M  V30 224 1 241 247
M  V30 225 1 242 248
M  V30 226 1 242 249
M  V30 227 1 243 250
M  V30 228 1 243 251
M  V30 229 1 252 253
M  V30 230 1 253 254
M  V30 231 1 254 255
M  V30 232 1 255 256
M  V30 233 1 253 257
M  V30 234 1 253 258
M  V30 235 1 254 259
M  V30 236 1 254 260
M  V30 237 1 255 261
M  V30 238 1 255 262
M  V30 239 1 263 264
M  V30 240 1 264 265
M  V30 241 1 264 266
M  V30 242 1 264 267
M  V30 243 1 263 268
M  V30 244 1 265 269
M  V30 245 1 266 270
M  V30 246 1 267 271
M  V30 247 1 272 273
M  V30 248 1 273 274
M  V30 249 1 274 275
M  V30 250 1 275 276
M  V30 251 1 273 277
M  V30 252 1 273 278
M  V30 253 1 274 279
M  V30 254 1 274 280
M  V30 255 1 275 281
M  V30 256 1 275 282
M  V30 257 1 276 283
M  V30 258 1 276 284
M  V30 259 1 285 286
M  V30 260 1 286 287
M  V30 261 1 287 288
M  V30 262 1 288 289
M  V30 263 1 286 290
M  V30 264 1 286 291
M  V30 265 1 287 292
M  V30 266 1 287 293
M  V30 267 1 288 294
M  V30 268 1 288 295
M  V30 269 1 289 296
M  V30 270 1 289 297
M  V30 271 2 1 12
M  V30 272 2 16 100
M  V30 273 2 5 23
M  V30 274 2 27 34
M  V30 275 2 38 44
M  V30 276 2 48 132
M  V30 277 2 39 55
M  V30 278 2 59 66
M  V30 279 2 70 76
M  V30 280 2 80 163
M  V30 281 2 71 87
M  V30 282 2 105 110
M  V30 283 2 114 196
M  V30 284 2 102 121
M  V30 285 2 125 135
M  V30 286 2 136 141
M  V30 287 2 145 230
M  V30 288 2 134 152
M  V30 289 2 156 166
M  V30 290 2 167 172
M  V30 291 2 176 263
M  V30 292 2 165 183
M  V30 293 2 201 206
M  V30 294 2 198 219
M  V30 295 2 223 233
M  V30 296 2 234 239
M  V30 297 2 232 252
M  V30 298 2 256 266
M  V30 299 2 267 272
M  V30 300 2 265 285
M  V30 END BOND
M  V30 END CTAB
M  END

$$$$
