/home/lukas/Desktop/liverpool_db/17_11_2015_update/aldehydes_3f/aldehyde3f_25.xyz
 OpenBabel02061816103D

 18 18  0  0  0  0  0  0  0  0999 V2000
   -3.4118    1.7692    0.1172 O   0  0  0  0  0  0  0  0  0  0  0  0
   -2.3484    1.9110   -0.4860 C   0  0  0  0  0  0  0  0  0  0  0  0
   -1.1261    1.1139   -0.2079 C   0  0  0  0  0  0  0  0  0  0  0  0
    0.0380    1.3481   -0.9480 C   0  0  0  0  0  0  0  0  0  0  0  0
    1.1968    0.6037   -0.6958 C   0  0  0  0  0  0  0  0  0  0  0  0
    2.4362    0.8470   -1.4778 C   0  0  0  0  0  0  0  0  0  0  0  0
    2.5298    1.6892   -2.3704 O   0  0  0  0  0  0  0  0  0  0  0  0
    1.1874   -0.3779    0.3013 C   0  0  0  0  0  0  0  0  0  0  0  0
    0.0257   -0.6172    1.0455 C   0  0  0  0  0  0  0  0  0  0  0  0
    0.0086   -1.6577    2.1057 C   0  0  0  0  0  0  0  0  0  0  0  0
    0.9784   -2.3580    2.3950 O   0  0  0  0  0  0  0  0  0  0  0  0
   -1.1289    0.1302    0.7886 C   0  0  0  0  0  0  0  0  0  0  0  0
   -2.2479    2.6525   -1.2796 H   0  0  0  0  0  0  0  0  0  0  0  0
    0.0538    2.1073   -1.7230 H   0  0  0  0  0  0  0  0  0  0  0  0
    3.2855    0.2180   -1.2085 H   0  0  0  0  0  0  0  0  0  0  0  0
    2.0784   -0.9619    0.5069 H   0  0  0  0  0  0  0  0  0  0  0  0
   -0.9412   -1.7700    2.6299 H   0  0  0  0  0  0  0  0  0  0  0  0
   -2.0358   -0.0451    1.3579 H   0  0  0  0  0  0  0  0  0  0  0  0
  2  1  2  0  0  0  0
  2  3  1  0  0  0  0
  3 12  1  0  0  0  0
  4  3  2  0  0  0  0
  4  5  1  0  0  0  0
  5  8  2  0  0  0  0
  6  5  1  0  0  0  0
  6 15  1  0  0  0  0
  7  6  2  0  0  0  0
  8 16  1  0  0  0  0
  8  9  1  0  0  0  0
  9 10  1  0  0  0  0
 10 11  2  0  0  0  0
 10 17  1  0  0  0  0
 12  9  2  0  0  0  0
 12 18  1  0  0  0  0
 13  2  1  0  0  0  0
 14  4  1  0  0  0  0
M  END
