
 OpenBabel05091909423D

 72102  0  0  1  0  0  0  0  0999 V2000
   24.7030   23.6069   22.9682 C   0  0  0  0  0  0  0  0  0  0  0  0
   25.0961   23.2814   21.6600 C   0  0  0  0  0  0  0  0  0  0  0  0
   24.3266   24.0495   20.7946 C   0  0  0  0  0  0  0  0  0  0  0  0
   23.4717   24.8402   21.5786 C   0  0  0  0  0  0  0  0  0  0  0  0
   23.7140   24.5772   22.9176 C   0  0  0  0  0  0  0  0  0  0  0  0
   24.1060   20.4762   24.3442 C   0  0  0  0  0  0  0  0  0  0  0  0
   24.9508   21.3128   23.6192 C   0  0  0  0  0  0  0  0  0  0  0  0
   24.6542   22.6189   23.9633 C   0  0  0  0  0  0  0  0  0  0  0  0
   23.6109   22.6019   24.8959 C   0  0  0  0  0  0  0  0  0  0  0  0
   23.2711   21.2701   25.1317 C   0  0  0  0  0  0  0  0  0  0  0  0
   21.4046   19.9553   19.0755 C   0  0  0  0  0  0  0  0  0  0  0  0
   21.3384   18.9631   20.0408 C   0  0  0  0  0  0  0  0  0  0  0  0
   22.6361   18.7223   20.4652 C   0  0  0  0  0  0  0  0  0  0  0  0
   23.5162   19.5476   19.7467 C   0  0  0  0  0  0  0  0  0  0  0  0
   22.7472   20.3170   18.8820 C   0  0  0  0  0  0  0  0  0  0  0  0
   20.3767   24.2124   20.1333 C   0  0  0  0  0  0  0  0  0  0  0  0
   21.7172   24.5531   19.9676 C   0  0  0  0  0  0  0  0  0  0  0  0
   22.1631   25.1145   21.1508 C   0  0  0  0  0  0  0  0  0  0  0  0
   21.1035   25.1136   22.0647 C   0  0  0  0  0  0  0  0  0  0  0  0
   19.9945   24.5526   21.4318 C   0  0  0  0  0  0  0  0  0  0  0  0
   21.3510   24.8387   23.4294 C   0  0  0  0  0  0  0  0  0  0  0  0
   22.6535   24.5766   23.8558 C   0  0  0  0  0  0  0  0  0  0  0  0
   22.5994   23.5882   24.8391 C   0  0  0  0  0  0  0  0  0  0  0  0
   21.2592   23.2290   25.0159 C   0  0  0  0  0  0  0  0  0  0  0  0
   20.4870   24.0025   24.1439 C   0  0  0  0  0  0  0  0  0  0  0  0
   19.2549   19.8851   20.8911 C   0  0  0  0  0  0  0  0  0  0  0  0
   18.8815   20.2083   22.1996 C   0  0  0  0  0  0  0  0  0  0  0  0
   19.6537   19.4347   23.0716 C   0  0  0  0  0  0  0  0  0  0  0  0
   20.5032   18.6345   22.3007 C   0  0  0  0  0  0  0  0  0  0  0  0
   20.2595   18.9189   20.9567 C   0  0  0  0  0  0  0  0  0  0  0  0
   19.3180   20.8940   19.9025 C   0  0  0  0  0  0  0  0  0  0  0  0
   19.0042   22.2124   20.2326 C   0  0  0  0  0  0  0  0  0  0  0  0
   19.8818   23.0428   19.5340 C   0  0  0  0  0  0  0  0  0  0  0  0
   20.7391   22.2417   18.7832 C   0  0  0  0  0  0  0  0  0  0  0  0
   20.3888   20.9214   19.0022 C   0  0  0  0  0  0  0  0  0  0  0  0
   18.6220   22.5439   21.5551 C   0  0  0  0  0  0  0  0  0  0  0  0
   19.1147   23.7084   22.1519 C   0  0  0  0  0  0  0  0  0  0  0  0
   19.3617   23.4326   23.4999 C   0  0  0  0  0  0  0  0  0  0  0  0
   19.0225   22.0965   23.7357 C   0  0  0  0  0  0  0  0  0  0  0  0
   18.5640   21.5474   22.5339 C   0  0  0  0  0  0  0  0  0  0  0  0
   21.4235   19.7373   24.7188 C   0  0  0  0  0  0  0  0  0  0  0  0
   20.1178   19.9907   24.2887 C   0  0  0  0  0  0  0  0  0  0  0  0
   19.8044   21.3131   24.6187 C   0  0  0  0  0  0  0  0  0  0  0  0
   20.9156   21.8759   25.2548 C   0  0  0  0  0  0  0  0  0  0  0  0
   21.9163   20.9018   25.3155 C   0  0  0  0  0  0  0  0  0  0  0  0
   22.5908   23.7529   19.1866 C   0  0  0  0  0  0  0  0  0  0  0  0
   22.1004   22.5940   18.5928 C   0  0  0  0  0  0  0  0  0  0  0  0
   23.1286   21.6341   18.5317 C   0  0  0  0  0  0  0  0  0  0  0  0
   24.4601   22.2604   18.9254 C   0  0  1  0  0  0  0  0  0  0  0  0
   23.9455   23.5646   19.5209 C   0  0  0  0  0  0  0  0  0  0  0  0
   22.8801   18.4262   21.8149 C   0  0  0  0  0  0  0  0  0  0  0  0
   21.8254   18.3823   22.7337 C   0  0  0  0  0  0  0  0  0  0  0  0
   22.2810   18.9300   23.9326 C   0  0  0  0  0  0  0  0  0  0  0  0
   23.6113   19.3072   23.7452 C   0  0  0  0  0  0  0  0  0  0  0  0
   23.9733   19.0026   22.4354 C   0  0  0  0  0  0  0  0  0  0  0  0
   25.3430   20.9976   22.2923 C   0  0  0  0  0  0  0  0  0  0  0  0
   25.5373   21.9827   21.3025 C   0  0  0  0  0  0  0  0  0  0  0  0
   25.3682   21.3732   19.9070 C   0  0  1  0  0  0  0  0  0  0  0  0
   24.7178   20.0457   20.3099 C   0  0  0  0  0  0  0  0  0  0  0  0
   24.8522   19.8378   21.6980 C   0  0  0  0  0  0  0  0  0  0  0  0
   26.7476   21.1358   19.2318 C   0  0  0  0  0  0  0  0  0  0  0  0
   27.7442   20.2938   20.0531 C   0  0  0  0  0  0  0  0  0  0  0  0
   29.0643   20.1205   19.3028 C   0  0  0  0  0  0  0  0  0  0  0  0
   29.9405   19.3527   20.0793 O   0  0  0  0  0  0  0  0  0  0  0  0
   27.2125   22.1261   19.0279 H   0  0  0  0  0  0  0  0  0  0  0  0
   26.5775   20.6241   18.2583 H   0  0  0  0  0  0  0  0  0  0  0  0
   27.3166   19.2876   20.2514 H   0  0  0  0  0  0  0  0  0  0  0  0
   27.9531   20.7938   21.0232 H   0  0  0  0  0  0  0  0  0  0  0  0
   29.5120   21.1224   19.1148 H   0  0  0  0  0  0  0  0  0  0  0  0
   28.8703   19.6031   18.3364 H   0  0  0  0  0  0  0  0  0  0  0  0
   30.7768   19.2716   19.5512 H   0  0  0  0  0  0  0  0  0  0  0  0
   25.0160   22.5026   17.9935 H   0  0  0  0  0  0  0  0  0  0  0  0
  1  8  1  0  0  0  0
  2  1  1  0  0  0  0
  3  4  2  0  0  0  0
  3  2  1  0  0  0  0
  4  5  1  0  0  0  0
  5  1  2  0  0  0  0
  5 22  1  0  0  0  0
  6 10  2  0  0  0  0
  7  8  1  0  0  0  0
  7  6  1  0  0  0  0
  8  9  2  0  0  0  0
  9 10  1  0  0  0  0
 10 45  1  0  0  0  0
 11 12  1  0  0  0  0
 12 13  1  0  0  0  0
 12 30  2  0  0  0  0
 13 51  1  0  0  0  0
 14 13  2  0  0  0  0
 14 59  1  0  0  0  0
 15 11  1  0  0  0  0
 15 14  1  0  0  0  0
 16 20  1  0  0  0  0
 17 16  2  0  0  0  0
 17 18  1  0  0  0  0
 18  4  1  0  0  0  0
 18 19  2  0  0  0  0
 19 21  1  0  0  0  0
 20 37  2  0  0  0  0
 20 19  1  0  0  0  0
 21 22  1  0  0  0  0
 21 25  2  0  0  0  0
 22 23  2  0  0  0  0
 23 24  1  0  0  0  0
 23  9  1  0  0  0  0
 24 44  2  0  0  0  0
 25 24  1  0  0  0  0
 26 30  1  0  0  0  0
 26 27  1  0  0  0  0
 27 40  1  0  0  0  0
 27 28  2  0  0  0  0
 28 42  1  0  0  0  0
 29 52  2  0  0  0  0
 29 28  1  0  0  0  0
 30 29  1  0  0  0  0
 31 32  1  0  0  0  0
 31 26  2  0  0  0  0
 32 36  1  0  0  0  0
 33 32  2  0  0  0  0
 33 16  1  0  0  0  0
 34 35  1  0  0  0  0
 34 33  1  0  0  0  0
 35 11  2  0  0  0  0
 35 31  1  0  0  0  0
 36 37  1  0  0  0  0
 36 40  2  0  0  0  0
 37 38  1  0  0  0  0
 38 39  2  0  0  0  0
 38 25  1  0  0  0  0
 39 43  1  0  0  0  0
 40 39  1  0  0  0  0
 41 45  2  0  0  0  0
 42 43  2  0  0  0  0
 42 41  1  0  0  0  0
 43 44  1  0  0  0  0
 44 45  1  0  0  0  0
 46 50  2  0  0  0  0
 46 17  1  0  0  0  0
 47 34  2  0  0  0  0
 47 48  1  0  0  0  0
 47 46  1  0  0  0  0
 48 15  2  0  0  0  0
 48 49  1  0  0  0  0
 49 50  1  0  0  0  0
 49 58  1  1  0  0  0
 49 72  1  0  0  0  0
 50  3  1  0  0  0  0
 51 55  2  0  0  0  0
 51 52  1  0  0  0  0
 52 53  1  0  0  0  0
 53 41  1  0  0  0  0
 54 53  2  0  0  0  0
 54  6  1  0  0  0  0
 55 54  1  0  0  0  0
 56  7  2  0  0  0  0
 57  2  2  0  0  0  0
 57 56  1  0  0  0  0
 58 59  1  0  0  0  0
 58 57  1  0  0  0  0
 58 61  1  6  0  0  0
 59 60  2  0  0  0  0
 60 55  1  0  0  0  0
 60 56  1  0  0  0  0
 61 62  1  0  0  0  0
 61 65  1  0  0  0  0
 61 66  1  0  0  0  0
 62 63  1  0  0  0  0
 62 67  1  0  0  0  0
 62 68  1  0  0  0  0
 63 64  1  0  0  0  0
 63 69  1  0  0  0  0
 63 70  1  0  0  0  0
 64 71  1  0  0  0  0
M  END
