
     RDKit          3D

  0  0  0  0  0  0  0  0  0  0999 V3000
M  V30 BEGIN CTAB
M  V30 COUNTS 90 103 0 0 0
M  V30 BEGIN ATOM
M  V30 1 B 2.9742 0.0000 0.0000 0
M  V30 2 C 1.4029 -0.0110 -0.0036 0
M  V30 3 C 0.7061 -1.1328 -0.3971 0
M  V30 4 C -0.6761 -1.1164 -0.3914 0
M  V30 5 C -1.4100 -0.0129 -0.0044 0
M  V30 6 B -2.9742 -0.0000 0.0000 0
M  V30 7 O -3.6509 -1.2325 -0.4297 0
M  V30 8 O -3.7231 1.2496 -0.2638 0
M  V30 9 N -0.6953 1.0639 0.3733 0
M  V30 10 C 0.6556 1.0818 0.3796 0
M  V30 11 H 1.2732 -2.0124 -0.7055 0
M  V30 12 H -1.2445 -1.9973 -0.7004 0
M  V30 13 H -3.3378 -1.3731 -1.3800 0
M  V30 14 H -3.0840 1.9771 -0.4891 0
M  V30 15 H 1.2189 1.9651 0.6895 0
M  V30 16 O 13.7450 -1.3733 0.1828 0
M  V30 17 C 12.5578 -0.6644 0.0885 0
M  V30 18 C 11.3397 -1.3461 0.1792 0
M  V30 19 C 10.1389 -0.6707 0.0893 0
M  V30 20 C 8.9508 -1.3772 0.1834 0
M  V30 21 C 7.7463 -0.7080 0.0943 0
M  V30 22 O 6.5143 -1.3613 0.1812 0
M  V30 23 C 7.8198 0.6648 -0.0885 0
M  V30 24 O 6.6140 1.3613 -0.1812 0
M  V30 25 N 8.9922 1.3252 -0.1764 0
M  V30 26 C 10.1702 0.6973 -0.0928 0
M  V30 27 C 11.3737 1.3743 -0.1830 0
M  V30 28 C 12.5748 0.7039 -0.0937 0
M  V30 29 O 13.7883 1.3733 -0.1828 0
M  V30 30 H 11.3402 -2.4184 0.3220 0
M  V30 31 H 8.9464 -2.4594 0.3274 0
M  V30 32 H 11.3835 2.4525 -0.3265 0
M  V30 33 B 23.3049 0.0000 0.0000 0
M  V30 34 C 21.7337 -0.0110 -0.0036 0
M  V30 35 C 21.0369 -1.1328 -0.3971 0
M  V30 36 C 19.6547 -1.1164 -0.3914 0
M  V30 37 C 18.9208 -0.0129 -0.0044 0
M  V30 38 B 17.3566 0.0000 0.0000 0
M  V30 39 N 19.6355 1.0639 0.3733 0
M  V30 40 C 20.9864 1.0818 0.3796 0
M  V30 41 H 21.6040 -2.0124 -0.7055 0
M  V30 42 H 19.0862 -1.9973 -0.7004 0
M  V30 43 H 21.5497 1.9651 0.6895 0
M  V30 44 O 34.0758 -1.3733 0.1828 0
M  V30 45 C 32.8886 -0.6644 0.0885 0
M  V30 46 C 31.6705 -1.3461 0.1792 0
M  V30 47 C 30.4696 -0.6707 0.0893 0
M  V30 48 C 29.2815 -1.3772 0.1834 0
M  V30 49 C 28.0771 -0.7080 0.0943 0
M  V30 50 O 26.8450 -1.3613 0.1812 0
M  V30 51 C 28.1506 0.6648 -0.0885 0
M  V30 52 O 26.9448 1.3613 -0.1812 0
M  V30 53 N 29.3230 1.3252 -0.1764 0
M  V30 54 C 30.5010 0.6973 -0.0928 0
M  V30 55 C 31.7045 1.3743 -0.1830 0
M  V30 56 C 32.9056 0.7039 -0.0937 0
M  V30 57 O 34.1191 1.3733 -0.1828 0
M  V30 58 H 31.6710 -2.4184 0.3220 0
M  V30 59 H 29.2772 -2.4594 0.3274 0
M  V30 60 H 31.7142 2.4525 -0.3265 0
M  V30 61 B 43.6357 -0.0000 0.0000 0
M  V30 62 C 42.0644 -0.0110 -0.0036 0
M  V30 63 C 41.3677 -1.1328 -0.3971 0
M  V30 64 C 39.9855 -1.1164 -0.3914 0
M  V30 65 C 39.2515 -0.0129 -0.0044 0
M  V30 66 B 37.6874 -0.0000 0.0000 0
M  V30 67 N 39.9663 1.0639 0.3733 0
M  V30 68 C 41.3172 1.0818 0.3796 0
M  V30 69 H 41.9348 -2.0124 -0.7055 0
M  V30 70 H 39.4170 -1.9973 -0.7004 0
M  V30 71 H 41.8805 1.9651 0.6895 0
M  V30 72 O 54.4066 -1.3733 0.1828 0
M  V30 73 C 53.2194 -0.6644 0.0885 0
M  V30 74 C 52.0012 -1.3461 0.1792 0
M  V30 75 C 50.8004 -0.6707 0.0893 0
M  V30 76 C 49.6123 -1.3772 0.1834 0
M  V30 77 C 48.4079 -0.7080 0.0943 0
M  V30 78 O 47.1758 -1.3613 0.1812 0
M  V30 79 C 48.4813 0.6648 -0.0885 0
M  V30 80 O 47.2755 1.3613 -0.1812 0
M  V30 81 N 49.6538 1.3252 -0.1764 0
M  V30 82 C 50.8318 0.6973 -0.0928 0
M  V30 83 C 52.0352 1.3743 -0.1830 0
M  V30 84 C 53.2364 0.7039 -0.0937 0
M  V30 85 O 54.4499 1.3733 -0.1828 0
M  V30 86 H 54.9477 -1.2467 1.0501 0
M  V30 87 H 52.0018 -2.4184 0.3220 0
M  V30 88 H 49.6080 -2.4594 0.3274 0
M  V30 89 H 52.0450 2.4525 -0.3265 0
M  V30 90 H 54.4785 2.3487 -0.4607 0
M  V30 END ATOM
M  V30 BEGIN BOND
M  V30 1 1 1 2
M  V30 2 2 2 3
M  V30 3 1 3 4
M  V30 4 2 4 5
M  V30 5 1 5 6
M  V30 6 1 6 7
M  V30 7 1 6 8
M  V30 8 1 5 9
M  V30 9 2 9 10
M  V30 10 1 10 2
M  V30 11 1 3 11
M  V30 12 1 4 12
M  V30 13 1 7 13
M  V30 14 1 8 14
M  V30 15 1 10 15
M  V30 16 1 16 17
M  V30 17 2 17 18
M  V30 18 1 18 19
M  V30 19 2 19 20
M  V30 20 1 20 21
M  V30 21 1 21 22
M  V30 22 2 21 23
M  V30 23 1 23 24
M  V30 24 1 23 25
M  V30 25 2 25 26
M  V30 26 1 26 27
M  V30 27 2 27 28
M  V30 28 1 28 29
M  V30 29 1 28 17
M  V30 30 1 26 19
M  V30 31 1 18 30
M  V30 32 1 20 31
M  V30 33 1 27 32
M  V30 34 1 33 34
M  V30 35 2 34 35
M  V30 36 1 35 36
M  V30 37 2 36 37
M  V30 38 1 37 38
M  V30 39 1 37 39
M  V30 40 2 39 40
M  V30 41 1 40 34
M  V30 42 1 35 41
M  V30 43 1 36 42
M  V30 44 1 40 43
M  V30 45 1 44 45
M  V30 46 2 45 46
M  V30 47 1 46 47
M  V30 48 2 47 48
M  V30 49 1 48 49
M  V30 50 1 49 50
M  V30 51 2 49 51
M  V30 52 1 51 52
M  V30 53 1 51 53
M  V30 54 2 53 54
M  V30 55 1 54 55
M  V30 56 2 55 56
M  V30 57 1 56 57
M  V30 58 1 56 45
M  V30 59 1 54 47
M  V30 60 1 46 58
M  V30 61 1 48 59
M  V30 62 1 55 60
M  V30 63 1 61 62
M  V30 64 2 62 63
M  V30 65 1 63 64
M  V30 66 2 64 65
M  V30 67 1 65 66
M  V30 68 1 65 67
M  V30 69 2 67 68
M  V30 70 1 68 62
M  V30 71 1 63 69
M  V30 72 1 64 70
M  V30 73 1 68 71
M  V30 74 1 72 73
M  V30 75 2 73 74
M  V30 76 1 74 75
M  V30 77 2 75 76
M  V30 78 1 76 77
M  V30 79 1 77 78
M  V30 80 2 77 79
M  V30 81 1 79 80
M  V30 82 1 79 81
M  V30 83 2 81 82
M  V30 84 1 82 83
M  V30 85 2 83 84
M  V30 86 1 84 85
M  V30 87 1 84 73
M  V30 88 1 82 75
M  V30 89 1 72 86
M  V30 90 1 74 87
M  V30 91 1 76 88
M  V30 92 1 83 89
M  V30 93 1 85 90
M  V30 94 1 1 22
M  V30 95 1 1 24
M  V30 96 1 38 16
M  V30 97 1 38 29
M  V30 98 1 33 50
M  V30 99 1 33 52
M  V30 100 1 66 44
M  V30 101 1 66 57
M  V30 102 1 61 78
M  V30 103 1 61 80
M  V30 END BOND
M  V30 END CTAB
M  END

$$$$
