
     RDKit          3D

  0  0  0  0  0  0  0  0  0  0999 V3000
M  V30 BEGIN CTAB
M  V30 COUNTS 28 27 0 0 0
M  V30 BEGIN ATOM
M  V30 1 C 0.0000 0.0000 0.0000 0
M  V30 2 C -1.3480 0.5404 -0.4569 0
M  V30 3 C -2.4029 -0.3733 0.1365 0
M  V30 4 H 0.1512 -1.0439 -0.3463 0
M  V30 5 H 0.8190 0.5921 -0.4770 0
M  V30 6 H -1.4877 1.5684 -0.0765 0
M  V30 7 H -1.3912 0.5804 -1.5623 0
M  V30 8 H -2.3271 -1.3398 -0.4250 0
M  V30 9 H -3.4150 0.0615 0.1064 0
M  V30 10 H -2.0619 -0.5851 1.1785 0
M  V30 11 C 7.5822 -0.0000 -0.0000 0
M  V30 12 C 6.3236 -0.5321 0.6239 0
M  V30 13 C 5.0697 -0.0000 -0.0000 0
M  V30 14 H 8.4744 -0.5069 0.4405 0
M  V30 15 H 7.5850 -0.2781 -1.0875 0
M  V30 16 H 6.3908 -1.6330 0.5892 0
M  V30 17 H 6.3309 -0.2458 1.7166 0
M  V30 18 H 4.1561 -0.4560 0.4422 0
M  V30 19 H 5.0555 -0.2713 -1.0767 0
M  V30 20 C 12.6519 0.0000 0.0000 0
M  V30 21 C 14.0975 -0.3164 -0.4031 0
M  V30 22 N 14.9544 0.3484 0.5349 0
M  V30 23 H 12.5926 1.1071 0.0215 0
M  V30 24 H 12.5426 -0.4541 1.0125 0
M  V30 25 H 14.2938 -1.4055 -0.2848 0
M  V30 26 H 14.3005 0.0128 -1.4327 0
M  V30 27 H 14.6263 0.3085 1.5049 0
M  V30 28 H 15.3660 1.2241 0.2157 0
M  V30 END ATOM
M  V30 BEGIN BOND
M  V30 1 1 1 2
M  V30 2 1 2 3
M  V30 3 1 1 4
M  V30 4 1 1 5
M  V30 5 1 2 6
M  V30 6 1 2 7
M  V30 7 1 3 8
M  V30 8 1 3 9
M  V30 9 1 3 10
M  V30 10 1 11 12
M  V30 11 1 12 13
M  V30 12 1 11 14
M  V30 13 1 11 15
M  V30 14 1 12 16
M  V30 15 1 12 17
M  V30 16 1 13 18
M  V30 17 1 13 19
M  V30 18 1 20 21
M  V30 19 1 21 22
M  V30 20 1 20 23
M  V30 21 1 20 24
M  V30 22 1 21 25
M  V30 23 1 21 26
M  V30 24 1 22 27
M  V30 25 1 22 28
M  V30 26 1 1 13
M  V30 27 1 11 20
M  V30 END BOND
M  V30 END CTAB
M  END

$$$$
